# generated using pymatgen
data_Na747Al(ClO)250
_symmetry_space_group_name_H-M   'P 1'
_cell_length_a   45.01000000
_cell_length_b   22.50500000
_cell_length_c   22.50500000
_cell_angle_alpha   90.00000000
_cell_angle_beta   90.00000000
_cell_angle_gamma   90.00000000
_symmetry_Int_Tables_number   1
_chemical_formula_structural   Na747Al(ClO)250
_chemical_formula_sum   'Na747 Al1 Cl250 O250'
_cell_volume   22796.44087525
_cell_formula_units_Z   1
loop_
 _symmetry_equiv_pos_site_id
 _symmetry_equiv_pos_as_xyz
  1  'x, y, z'
loop_
 _atom_site_type_symbol
 _atom_site_label
 _atom_site_symmetry_multiplicity
 _atom_site_fract_x
 _atom_site_fract_y
 _atom_site_fract_z
 _atom_site_occupancy
  Na  Na0  1  0.05000000  0.10000000  0.00000000  1
  Na  Na1  1  0.05000000  0.10000000  0.20000000  1
  Na  Na2  1  0.05000000  0.10000000  0.40000000  1
  Na  Na3  1  0.05000000  0.10000000  0.60000000  1
  Na  Na4  1  0.05000000  0.10000000  0.80000000  1
  Na  Na5  1  0.05000000  0.30000000  0.00000000  1
  Na  Na6  1  0.05000000  0.30000000  0.20000000  1
  Na  Na7  1  0.05000000  0.30000000  0.40000000  1
  Na  Na8  1  0.05000000  0.30000000  0.60000000  1
  Na  Na9  1  0.05000000  0.30000000  0.80000000  1
  Na  Na10  1  0.05000000  0.50000000  0.00000000  1
  Na  Na11  1  0.05000000  0.50000000  0.20000000  1
  Na  Na12  1  0.05000000  0.50000000  0.40000000  1
  Na  Na13  1  0.05000000  0.50000000  0.60000000  1
  Na  Na14  1  0.05000000  0.50000000  0.80000000  1
  Na  Na15  1  0.05000000  0.70000000  0.00000000  1
  Na  Na16  1  0.05000000  0.70000000  0.20000000  1
  Na  Na17  1  0.05000000  0.70000000  0.40000000  1
  Na  Na18  1  0.05000000  0.70000000  0.60000000  1
  Na  Na19  1  0.05000000  0.70000000  0.80000000  1
  Na  Na20  1  0.05000000  0.90000000  0.00000000  1
  Na  Na21  1  0.05000000  0.90000000  0.20000000  1
  Na  Na22  1  0.05000000  0.90000000  0.40000000  1
  Na  Na23  1  0.05000000  0.90000000  0.60000000  1
  Na  Na24  1  0.05000000  0.90000000  0.80000000  1
  Na  Na25  1  0.15000000  0.10000000  0.00000000  1
  Na  Na26  1  0.15000000  0.10000000  0.20000000  1
  Na  Na27  1  0.15000000  0.10000000  0.40000000  1
  Na  Na28  1  0.15000000  0.10000000  0.60000000  1
  Na  Na29  1  0.15000000  0.10000000  0.80000000  1
  Na  Na30  1  0.15000000  0.30000000  0.00000000  1
  Na  Na31  1  0.15000000  0.30000000  0.20000000  1
  Na  Na32  1  0.15000000  0.30000000  0.40000000  1
  Na  Na33  1  0.15000000  0.30000000  0.60000000  1
  Na  Na34  1  0.15000000  0.30000000  0.80000000  1
  Na  Na35  1  0.15000000  0.50000000  0.00000000  1
  Na  Na36  1  0.15000000  0.50000000  0.20000000  1
  Na  Na37  1  0.15000000  0.50000000  0.40000000  1
  Na  Na38  1  0.15000000  0.50000000  0.60000000  1
  Na  Na39  1  0.15000000  0.50000000  0.80000000  1
  Na  Na40  1  0.15000000  0.70000000  0.00000000  1
  Na  Na41  1  0.15000000  0.70000000  0.20000000  1
  Na  Na42  1  0.15000000  0.70000000  0.40000000  1
  Na  Na43  1  0.15000000  0.70000000  0.60000000  1
  Na  Na44  1  0.15000000  0.70000000  0.80000000  1
  Na  Na45  1  0.15000000  0.90000000  0.00000000  1
  Na  Na46  1  0.15000000  0.90000000  0.20000000  1
  Na  Na47  1  0.15000000  0.90000000  0.40000000  1
  Na  Na48  1  0.15000000  0.90000000  0.60000000  1
  Na  Na49  1  0.15000000  0.90000000  0.80000000  1
  Na  Na50  1  0.25000000  0.10000000  0.00000000  1
  Na  Na51  1  0.25000000  0.10000000  0.40000000  1
  Na  Na52  1  0.25000000  0.10000000  0.60000000  1
  Na  Na53  1  0.25000000  0.10000000  0.80000000  1
  Na  Na54  1  0.25000000  0.30000000  0.00000000  1
  Na  Na55  1  0.25000000  0.30000000  0.20000000  1
  Na  Na56  1  0.25000000  0.30000000  0.40000000  1
  Na  Na57  1  0.25000000  0.30000000  0.60000000  1
  Na  Na58  1  0.25000000  0.30000000  0.80000000  1
  Na  Na59  1  0.25000000  0.50000000  0.00000000  1
  Na  Na60  1  0.25000000  0.50000000  0.20000000  1
  Na  Na61  1  0.25000000  0.50000000  0.40000000  1
  Al  Al62  1  0.25000000  0.50000000  0.60000000  1
  Na  Na63  1  0.25000000  0.50000000  0.80000000  1
  Na  Na64  1  0.25000000  0.70000000  0.00000000  1
  Na  Na65  1  0.25000000  0.70000000  0.20000000  1
  Na  Na66  1  0.25000000  0.70000000  0.40000000  1
  Na  Na67  1  0.25000000  0.70000000  0.60000000  1
  Na  Na68  1  0.25000000  0.70000000  0.80000000  1
  Na  Na69  1  0.25000000  0.90000000  0.00000000  1
  Na  Na70  1  0.25000000  0.90000000  0.20000000  1
  Na  Na71  1  0.25000000  0.90000000  0.40000000  1
  Na  Na72  1  0.25000000  0.90000000  0.60000000  1
  Na  Na73  1  0.25000000  0.90000000  0.80000000  1
  Na  Na74  1  0.35000000  0.10000000  0.00000000  1
  Na  Na75  1  0.35000000  0.10000000  0.20000000  1
  Na  Na76  1  0.35000000  0.10000000  0.40000000  1
  Na  Na77  1  0.35000000  0.10000000  0.60000000  1
  Na  Na78  1  0.35000000  0.10000000  0.80000000  1
  Na  Na79  1  0.35000000  0.30000000  0.00000000  1
  Na  Na80  1  0.35000000  0.30000000  0.20000000  1
  Na  Na81  1  0.35000000  0.30000000  0.40000000  1
  Na  Na82  1  0.35000000  0.30000000  0.60000000  1
  Na  Na83  1  0.35000000  0.30000000  0.80000000  1
  Na  Na84  1  0.35000000  0.50000000  0.00000000  1
  Na  Na85  1  0.35000000  0.50000000  0.20000000  1
  Na  Na86  1  0.35000000  0.50000000  0.40000000  1
  Na  Na87  1  0.35000000  0.50000000  0.60000000  1
  Na  Na88  1  0.35000000  0.50000000  0.80000000  1
  Na  Na89  1  0.35000000  0.70000000  0.00000000  1
  Na  Na90  1  0.35000000  0.70000000  0.20000000  1
  Na  Na91  1  0.35000000  0.70000000  0.40000000  1
  Na  Na92  1  0.35000000  0.70000000  0.60000000  1
  Na  Na93  1  0.35000000  0.70000000  0.80000000  1
  Na  Na94  1  0.35000000  0.90000000  0.00000000  1
  Na  Na95  1  0.35000000  0.90000000  0.20000000  1
  Na  Na96  1  0.35000000  0.90000000  0.40000000  1
  Na  Na97  1  0.35000000  0.90000000  0.60000000  1
  Na  Na98  1  0.35000000  0.90000000  0.80000000  1
  Na  Na99  1  0.45000000  0.10000000  0.00000000  1
  Na  Na100  1  0.45000000  0.10000000  0.20000000  1
  Na  Na101  1  0.45000000  0.10000000  0.40000000  1
  Na  Na102  1  0.45000000  0.10000000  0.60000000  1
  Na  Na103  1  0.45000000  0.10000000  0.80000000  1
  Na  Na104  1  0.45000000  0.30000000  0.00000000  1
  Na  Na105  1  0.45000000  0.30000000  0.20000000  1
  Na  Na106  1  0.45000000  0.30000000  0.40000000  1
  Na  Na107  1  0.45000000  0.30000000  0.60000000  1
  Na  Na108  1  0.45000000  0.30000000  0.80000000  1
  Na  Na109  1  0.45000000  0.50000000  0.00000000  1
  Na  Na110  1  0.45000000  0.50000000  0.20000000  1
  Na  Na111  1  0.45000000  0.50000000  0.40000000  1
  Na  Na112  1  0.45000000  0.50000000  0.60000000  1
  Na  Na113  1  0.45000000  0.50000000  0.80000000  1
  Na  Na114  1  0.45000000  0.70000000  0.00000000  1
  Na  Na115  1  0.45000000  0.70000000  0.20000000  1
  Na  Na116  1  0.45000000  0.70000000  0.40000000  1
  Na  Na117  1  0.45000000  0.70000000  0.60000000  1
  Na  Na118  1  0.45000000  0.70000000  0.80000000  1
  Na  Na119  1  0.45000000  0.90000000  0.00000000  1
  Na  Na120  1  0.45000000  0.90000000  0.20000000  1
  Na  Na121  1  0.45000000  0.90000000  0.40000000  1
  Na  Na122  1  0.45000000  0.90000000  0.60000000  1
  Na  Na123  1  0.45000000  0.90000000  0.80000000  1
  Na  Na124  1  0.55000000  0.10000000  0.00000000  1
  Na  Na125  1  0.55000000  0.10000000  0.20000000  1
  Na  Na126  1  0.55000000  0.10000000  0.40000000  1
  Na  Na127  1  0.55000000  0.10000000  0.60000000  1
  Na  Na128  1  0.55000000  0.10000000  0.80000000  1
  Na  Na129  1  0.55000000  0.30000000  0.00000000  1
  Na  Na130  1  0.55000000  0.30000000  0.20000000  1
  Na  Na131  1  0.55000000  0.30000000  0.40000000  1
  Na  Na132  1  0.55000000  0.30000000  0.60000000  1
  Na  Na133  1  0.55000000  0.30000000  0.80000000  1
  Na  Na134  1  0.55000000  0.50000000  0.00000000  1
  Na  Na135  1  0.55000000  0.50000000  0.20000000  1
  Na  Na136  1  0.55000000  0.50000000  0.40000000  1
  Na  Na137  1  0.55000000  0.50000000  0.60000000  1
  Na  Na138  1  0.55000000  0.50000000  0.80000000  1
  Na  Na139  1  0.55000000  0.70000000  0.00000000  1
  Na  Na140  1  0.55000000  0.70000000  0.20000000  1
  Na  Na141  1  0.55000000  0.70000000  0.40000000  1
  Na  Na142  1  0.55000000  0.70000000  0.60000000  1
  Na  Na143  1  0.55000000  0.70000000  0.80000000  1
  Na  Na144  1  0.55000000  0.90000000  0.00000000  1
  Na  Na145  1  0.55000000  0.90000000  0.20000000  1
  Na  Na146  1  0.55000000  0.90000000  0.40000000  1
  Na  Na147  1  0.55000000  0.90000000  0.60000000  1
  Na  Na148  1  0.55000000  0.90000000  0.80000000  1
  Na  Na149  1  0.65000000  0.10000000  0.00000000  1
  Na  Na150  1  0.65000000  0.10000000  0.20000000  1
  Na  Na151  1  0.65000000  0.10000000  0.40000000  1
  Na  Na152  1  0.65000000  0.10000000  0.60000000  1
  Na  Na153  1  0.65000000  0.10000000  0.80000000  1
  Na  Na154  1  0.65000000  0.30000000  0.00000000  1
  Na  Na155  1  0.65000000  0.30000000  0.20000000  1
  Na  Na156  1  0.65000000  0.30000000  0.40000000  1
  Na  Na157  1  0.65000000  0.30000000  0.60000000  1
  Na  Na158  1  0.65000000  0.30000000  0.80000000  1
  Na  Na159  1  0.65000000  0.50000000  0.00000000  1
  Na  Na160  1  0.65000000  0.50000000  0.20000000  1
  Na  Na161  1  0.65000000  0.50000000  0.40000000  1
  Na  Na162  1  0.65000000  0.50000000  0.60000000  1
  Na  Na163  1  0.65000000  0.50000000  0.80000000  1
  Na  Na164  1  0.65000000  0.70000000  0.00000000  1
  Na  Na165  1  0.65000000  0.70000000  0.20000000  1
  Na  Na166  1  0.65000000  0.70000000  0.40000000  1
  Na  Na167  1  0.65000000  0.70000000  0.60000000  1
  Na  Na168  1  0.65000000  0.70000000  0.80000000  1
  Na  Na169  1  0.65000000  0.90000000  0.00000000  1
  Na  Na170  1  0.65000000  0.90000000  0.20000000  1
  Na  Na171  1  0.65000000  0.90000000  0.40000000  1
  Na  Na172  1  0.65000000  0.90000000  0.60000000  1
  Na  Na173  1  0.65000000  0.90000000  0.80000000  1
  Na  Na174  1  0.75000000  0.10000000  0.00000000  1
  Na  Na175  1  0.75000000  0.10000000  0.20000000  1
  Na  Na176  1  0.75000000  0.10000000  0.40000000  1
  Na  Na177  1  0.75000000  0.10000000  0.60000000  1
  Na  Na178  1  0.75000000  0.10000000  0.80000000  1
  Na  Na179  1  0.75000000  0.30000000  0.00000000  1
  Na  Na180  1  0.75000000  0.30000000  0.20000000  1
  Na  Na181  1  0.75000000  0.30000000  0.40000000  1
  Na  Na182  1  0.75000000  0.30000000  0.60000000  1
  Na  Na183  1  0.75000000  0.30000000  0.80000000  1
  Na  Na184  1  0.75000000  0.50000000  0.00000000  1
  Na  Na185  1  0.75000000  0.50000000  0.20000000  1
  Na  Na186  1  0.75000000  0.50000000  0.40000000  1
  Na  Na187  1  0.75000000  0.50000000  0.60000000  1
  Na  Na188  1  0.75000000  0.50000000  0.80000000  1
  Na  Na189  1  0.75000000  0.70000000  0.00000000  1
  Na  Na190  1  0.75000000  0.70000000  0.20000000  1
  Na  Na191  1  0.75000000  0.70000000  0.40000000  1
  Na  Na192  1  0.75000000  0.70000000  0.60000000  1
  Na  Na193  1  0.75000000  0.70000000  0.80000000  1
  Na  Na194  1  0.75000000  0.90000000  0.00000000  1
  Na  Na195  1  0.75000000  0.90000000  0.20000000  1
  Na  Na196  1  0.75000000  0.90000000  0.40000000  1
  Na  Na197  1  0.75000000  0.90000000  0.60000000  1
  Na  Na198  1  0.75000000  0.90000000  0.80000000  1
  Na  Na199  1  0.85000000  0.10000000  0.00000000  1
  Na  Na200  1  0.85000000  0.10000000  0.20000000  1
  Na  Na201  1  0.85000000  0.10000000  0.40000000  1
  Na  Na202  1  0.85000000  0.10000000  0.60000000  1
  Na  Na203  1  0.85000000  0.10000000  0.80000000  1
  Na  Na204  1  0.85000000  0.30000000  0.00000000  1
  Na  Na205  1  0.85000000  0.30000000  0.20000000  1
  Na  Na206  1  0.85000000  0.30000000  0.40000000  1
  Na  Na207  1  0.85000000  0.30000000  0.60000000  1
  Na  Na208  1  0.85000000  0.30000000  0.80000000  1
  Na  Na209  1  0.85000000  0.50000000  0.00000000  1
  Na  Na210  1  0.85000000  0.50000000  0.20000000  1
  Na  Na211  1  0.85000000  0.50000000  0.40000000  1
  Na  Na212  1  0.85000000  0.50000000  0.60000000  1
  Na  Na213  1  0.85000000  0.50000000  0.80000000  1
  Na  Na214  1  0.85000000  0.70000000  0.00000000  1
  Na  Na215  1  0.85000000  0.70000000  0.20000000  1
  Na  Na216  1  0.85000000  0.70000000  0.40000000  1
  Na  Na217  1  0.85000000  0.70000000  0.60000000  1
  Na  Na218  1  0.85000000  0.70000000  0.80000000  1
  Na  Na219  1  0.85000000  0.90000000  0.00000000  1
  Na  Na220  1  0.85000000  0.90000000  0.20000000  1
  Na  Na221  1  0.85000000  0.90000000  0.40000000  1
  Na  Na222  1  0.85000000  0.90000000  0.60000000  1
  Na  Na223  1  0.85000000  0.90000000  0.80000000  1
  Na  Na224  1  0.95000000  0.10000000  0.00000000  1
  Na  Na225  1  0.95000000  0.10000000  0.20000000  1
  Na  Na226  1  0.95000000  0.10000000  0.40000000  1
  Na  Na227  1  0.95000000  0.10000000  0.60000000  1
  Na  Na228  1  0.95000000  0.10000000  0.80000000  1
  Na  Na229  1  0.95000000  0.30000000  0.00000000  1
  Na  Na230  1  0.95000000  0.30000000  0.20000000  1
  Na  Na231  1  0.95000000  0.30000000  0.40000000  1
  Na  Na232  1  0.95000000  0.30000000  0.60000000  1
  Na  Na233  1  0.95000000  0.30000000  0.80000000  1
  Na  Na234  1  0.95000000  0.50000000  0.00000000  1
  Na  Na235  1  0.95000000  0.50000000  0.20000000  1
  Na  Na236  1  0.95000000  0.50000000  0.40000000  1
  Na  Na237  1  0.95000000  0.50000000  0.60000000  1
  Na  Na238  1  0.95000000  0.50000000  0.80000000  1
  Na  Na239  1  0.95000000  0.70000000  0.00000000  1
  Na  Na240  1  0.95000000  0.70000000  0.20000000  1
  Na  Na241  1  0.95000000  0.70000000  0.40000000  1
  Na  Na242  1  0.95000000  0.70000000  0.60000000  1
  Na  Na243  1  0.95000000  0.70000000  0.80000000  1
  Na  Na244  1  0.95000000  0.90000000  0.00000000  1
  Na  Na245  1  0.95000000  0.90000000  0.20000000  1
  Na  Na246  1  0.95000000  0.90000000  0.40000000  1
  Na  Na247  1  0.95000000  0.90000000  0.60000000  1
  Na  Na248  1  0.95000000  0.90000000  0.80000000  1
  Na  Na249  1  0.05000000  0.00000000  0.10000000  1
  Na  Na250  1  0.05000000  0.00000000  0.30000000  1
  Na  Na251  1  0.05000000  0.00000000  0.50000000  1
  Na  Na252  1  0.05000000  0.00000000  0.70000000  1
  Na  Na253  1  0.05000000  0.00000000  0.90000000  1
  Na  Na254  1  0.05000000  0.20000000  0.10000000  1
  Na  Na255  1  0.05000000  0.20000000  0.30000000  1
  Na  Na256  1  0.05000000  0.20000000  0.50000000  1
  Na  Na257  1  0.05000000  0.20000000  0.70000000  1
  Na  Na258  1  0.05000000  0.20000000  0.90000000  1
  Na  Na259  1  0.05000000  0.40000000  0.10000000  1
  Na  Na260  1  0.05000000  0.40000000  0.30000000  1
  Na  Na261  1  0.05000000  0.40000000  0.50000000  1
  Na  Na262  1  0.05000000  0.40000000  0.70000000  1
  Na  Na263  1  0.05000000  0.40000000  0.90000000  1
  Na  Na264  1  0.05000000  0.60000000  0.10000000  1
  Na  Na265  1  0.05000000  0.60000000  0.30000000  1
  Na  Na266  1  0.05000000  0.60000000  0.50000000  1
  Na  Na267  1  0.05000000  0.60000000  0.70000000  1
  Na  Na268  1  0.05000000  0.60000000  0.90000000  1
  Na  Na269  1  0.05000000  0.80000000  0.10000000  1
  Na  Na270  1  0.05000000  0.80000000  0.30000000  1
  Na  Na271  1  0.05000000  0.80000000  0.50000000  1
  Na  Na272  1  0.05000000  0.80000000  0.70000000  1
  Na  Na273  1  0.05000000  0.80000000  0.90000000  1
  Na  Na274  1  0.15000000  0.00000000  0.10000000  1
  Na  Na275  1  0.15000000  0.00000000  0.30000000  1
  Na  Na276  1  0.15000000  0.00000000  0.50000000  1
  Na  Na277  1  0.15000000  0.00000000  0.70000000  1
  Na  Na278  1  0.15000000  0.00000000  0.90000000  1
  Na  Na279  1  0.15000000  0.20000000  0.10000000  1
  Na  Na280  1  0.15000000  0.20000000  0.30000000  1
  Na  Na281  1  0.15000000  0.20000000  0.50000000  1
  Na  Na282  1  0.15000000  0.20000000  0.70000000  1
  Na  Na283  1  0.15000000  0.20000000  0.90000000  1
  Na  Na284  1  0.15000000  0.40000000  0.10000000  1
  Na  Na285  1  0.15000000  0.40000000  0.30000000  1
  Na  Na286  1  0.15000000  0.40000000  0.50000000  1
  Na  Na287  1  0.15000000  0.40000000  0.70000000  1
  Na  Na288  1  0.15000000  0.40000000  0.90000000  1
  Na  Na289  1  0.15000000  0.60000000  0.10000000  1
  Na  Na290  1  0.15000000  0.60000000  0.30000000  1
  Na  Na291  1  0.15000000  0.60000000  0.50000000  1
  Na  Na292  1  0.15000000  0.60000000  0.70000000  1
  Na  Na293  1  0.15000000  0.60000000  0.90000000  1
  Na  Na294  1  0.15000000  0.80000000  0.10000000  1
  Na  Na295  1  0.15000000  0.80000000  0.30000000  1
  Na  Na296  1  0.15000000  0.80000000  0.50000000  1
  Na  Na297  1  0.15000000  0.80000000  0.70000000  1
  Na  Na298  1  0.15000000  0.80000000  0.90000000  1
  Na  Na299  1  0.25000000  0.00000000  0.10000000  1
  Na  Na300  1  0.25000000  0.00000000  0.30000000  1
  Na  Na301  1  0.25000000  0.00000000  0.50000000  1
  Na  Na302  1  0.25000000  0.00000000  0.70000000  1
  Na  Na303  1  0.25000000  0.00000000  0.90000000  1
  Na  Na304  1  0.25000000  0.20000000  0.10000000  1
  Na  Na305  1  0.25000000  0.20000000  0.30000000  1
  Na  Na306  1  0.25000000  0.20000000  0.50000000  1
  Na  Na307  1  0.25000000  0.20000000  0.70000000  1
  Na  Na308  1  0.25000000  0.20000000  0.90000000  1
  Na  Na309  1  0.25000000  0.40000000  0.10000000  1
  Na  Na310  1  0.25000000  0.40000000  0.30000000  1
  Na  Na311  1  0.25000000  0.40000000  0.50000000  1
  Na  Na312  1  0.25000000  0.40000000  0.70000000  1
  Na  Na313  1  0.25000000  0.40000000  0.90000000  1
  Na  Na314  1  0.25000000  0.60000000  0.10000000  1
  Na  Na315  1  0.25000000  0.60000000  0.30000000  1
  Na  Na316  1  0.25000000  0.60000000  0.50000000  1
  Na  Na317  1  0.25000000  0.60000000  0.70000000  1
  Na  Na318  1  0.25000000  0.60000000  0.90000000  1
  Na  Na319  1  0.25000000  0.80000000  0.10000000  1
  Na  Na320  1  0.25000000  0.80000000  0.30000000  1
  Na  Na321  1  0.25000000  0.80000000  0.50000000  1
  Na  Na322  1  0.25000000  0.80000000  0.70000000  1
  Na  Na323  1  0.25000000  0.80000000  0.90000000  1
  Na  Na324  1  0.35000000  0.00000000  0.10000000  1
  Na  Na325  1  0.35000000  0.00000000  0.30000000  1
  Na  Na326  1  0.35000000  0.00000000  0.50000000  1
  Na  Na327  1  0.35000000  0.00000000  0.70000000  1
  Na  Na328  1  0.35000000  0.00000000  0.90000000  1
  Na  Na329  1  0.35000000  0.20000000  0.10000000  1
  Na  Na330  1  0.35000000  0.20000000  0.30000000  1
  Na  Na331  1  0.35000000  0.20000000  0.50000000  1
  Na  Na332  1  0.35000000  0.20000000  0.70000000  1
  Na  Na333  1  0.35000000  0.20000000  0.90000000  1
  Na  Na334  1  0.35000000  0.40000000  0.10000000  1
  Na  Na335  1  0.35000000  0.40000000  0.30000000  1
  Na  Na336  1  0.35000000  0.40000000  0.50000000  1
  Na  Na337  1  0.35000000  0.40000000  0.70000000  1
  Na  Na338  1  0.35000000  0.40000000  0.90000000  1
  Na  Na339  1  0.35000000  0.60000000  0.10000000  1
  Na  Na340  1  0.35000000  0.60000000  0.30000000  1
  Na  Na341  1  0.35000000  0.60000000  0.50000000  1
  Na  Na342  1  0.35000000  0.60000000  0.70000000  1
  Na  Na343  1  0.35000000  0.60000000  0.90000000  1
  Na  Na344  1  0.35000000  0.80000000  0.10000000  1
  Na  Na345  1  0.35000000  0.80000000  0.30000000  1
  Na  Na346  1  0.35000000  0.80000000  0.50000000  1
  Na  Na347  1  0.35000000  0.80000000  0.70000000  1
  Na  Na348  1  0.35000000  0.80000000  0.90000000  1
  Na  Na349  1  0.45000000  0.00000000  0.10000000  1
  Na  Na350  1  0.45000000  0.00000000  0.30000000  1
  Na  Na351  1  0.45000000  0.00000000  0.50000000  1
  Na  Na352  1  0.45000000  0.00000000  0.70000000  1
  Na  Na353  1  0.45000000  0.00000000  0.90000000  1
  Na  Na354  1  0.45000000  0.20000000  0.10000000  1
  Na  Na355  1  0.45000000  0.20000000  0.30000000  1
  Na  Na356  1  0.45000000  0.20000000  0.50000000  1
  Na  Na357  1  0.45000000  0.20000000  0.70000000  1
  Na  Na358  1  0.45000000  0.20000000  0.90000000  1
  Na  Na359  1  0.45000000  0.40000000  0.10000000  1
  Na  Na360  1  0.45000000  0.40000000  0.30000000  1
  Na  Na361  1  0.45000000  0.40000000  0.50000000  1
  Na  Na362  1  0.45000000  0.40000000  0.70000000  1
  Na  Na363  1  0.45000000  0.40000000  0.90000000  1
  Na  Na364  1  0.45000000  0.60000000  0.10000000  1
  Na  Na365  1  0.45000000  0.60000000  0.30000000  1
  Na  Na366  1  0.45000000  0.60000000  0.50000000  1
  Na  Na367  1  0.45000000  0.60000000  0.70000000  1
  Na  Na368  1  0.45000000  0.60000000  0.90000000  1
  Na  Na369  1  0.45000000  0.80000000  0.10000000  1
  Na  Na370  1  0.45000000  0.80000000  0.30000000  1
  Na  Na371  1  0.45000000  0.80000000  0.50000000  1
  Na  Na372  1  0.45000000  0.80000000  0.70000000  1
  Na  Na373  1  0.45000000  0.80000000  0.90000000  1
  Na  Na374  1  0.55000000  0.00000000  0.10000000  1
  Na  Na375  1  0.55000000  0.00000000  0.30000000  1
  Na  Na376  1  0.55000000  0.00000000  0.50000000  1
  Na  Na377  1  0.55000000  0.00000000  0.70000000  1
  Na  Na378  1  0.55000000  0.00000000  0.90000000  1
  Na  Na379  1  0.55000000  0.20000000  0.10000000  1
  Na  Na380  1  0.55000000  0.20000000  0.30000000  1
  Na  Na381  1  0.55000000  0.20000000  0.50000000  1
  Na  Na382  1  0.55000000  0.20000000  0.70000000  1
  Na  Na383  1  0.55000000  0.20000000  0.90000000  1
  Na  Na384  1  0.55000000  0.40000000  0.10000000  1
  Na  Na385  1  0.55000000  0.40000000  0.30000000  1
  Na  Na386  1  0.55000000  0.40000000  0.50000000  1
  Na  Na387  1  0.55000000  0.40000000  0.70000000  1
  Na  Na388  1  0.55000000  0.40000000  0.90000000  1
  Na  Na389  1  0.55000000  0.60000000  0.10000000  1
  Na  Na390  1  0.55000000  0.60000000  0.30000000  1
  Na  Na391  1  0.55000000  0.60000000  0.50000000  1
  Na  Na392  1  0.55000000  0.60000000  0.70000000  1
  Na  Na393  1  0.55000000  0.60000000  0.90000000  1
  Na  Na394  1  0.55000000  0.80000000  0.10000000  1
  Na  Na395  1  0.55000000  0.80000000  0.30000000  1
  Na  Na396  1  0.55000000  0.80000000  0.50000000  1
  Na  Na397  1  0.55000000  0.80000000  0.70000000  1
  Na  Na398  1  0.55000000  0.80000000  0.90000000  1
  Na  Na399  1  0.65000000  0.00000000  0.10000000  1
  Na  Na400  1  0.65000000  0.00000000  0.30000000  1
  Na  Na401  1  0.65000000  0.00000000  0.50000000  1
  Na  Na402  1  0.65000000  0.00000000  0.70000000  1
  Na  Na403  1  0.65000000  0.00000000  0.90000000  1
  Na  Na404  1  0.65000000  0.20000000  0.10000000  1
  Na  Na405  1  0.65000000  0.20000000  0.30000000  1
  Na  Na406  1  0.65000000  0.20000000  0.50000000  1
  Na  Na407  1  0.65000000  0.20000000  0.70000000  1
  Na  Na408  1  0.65000000  0.20000000  0.90000000  1
  Na  Na409  1  0.65000000  0.40000000  0.10000000  1
  Na  Na410  1  0.65000000  0.40000000  0.30000000  1
  Na  Na411  1  0.65000000  0.40000000  0.50000000  1
  Na  Na412  1  0.65000000  0.40000000  0.70000000  1
  Na  Na413  1  0.65000000  0.40000000  0.90000000  1
  Na  Na414  1  0.65000000  0.60000000  0.10000000  1
  Na  Na415  1  0.65000000  0.60000000  0.30000000  1
  Na  Na416  1  0.65000000  0.60000000  0.50000000  1
  Na  Na417  1  0.65000000  0.60000000  0.70000000  1
  Na  Na418  1  0.65000000  0.60000000  0.90000000  1
  Na  Na419  1  0.65000000  0.80000000  0.10000000  1
  Na  Na420  1  0.65000000  0.80000000  0.30000000  1
  Na  Na421  1  0.65000000  0.80000000  0.50000000  1
  Na  Na422  1  0.65000000  0.80000000  0.70000000  1
  Na  Na423  1  0.65000000  0.80000000  0.90000000  1
  Na  Na424  1  0.75000000  0.00000000  0.10000000  1
  Na  Na425  1  0.75000000  0.00000000  0.30000000  1
  Na  Na426  1  0.75000000  0.00000000  0.50000000  1
  Na  Na427  1  0.75000000  0.00000000  0.70000000  1
  Na  Na428  1  0.75000000  0.00000000  0.90000000  1
  Na  Na429  1  0.75000000  0.20000000  0.10000000  1
  Na  Na430  1  0.75000000  0.20000000  0.30000000  1
  Na  Na431  1  0.75000000  0.20000000  0.50000000  1
  Na  Na432  1  0.75000000  0.20000000  0.70000000  1
  Na  Na433  1  0.75000000  0.20000000  0.90000000  1
  Na  Na434  1  0.75000000  0.40000000  0.10000000  1
  Na  Na435  1  0.75000000  0.40000000  0.30000000  1
  Na  Na436  1  0.75000000  0.40000000  0.50000000  1
  Na  Na437  1  0.75000000  0.40000000  0.70000000  1
  Na  Na438  1  0.75000000  0.40000000  0.90000000  1
  Na  Na439  1  0.75000000  0.60000000  0.10000000  1
  Na  Na440  1  0.75000000  0.60000000  0.30000000  1
  Na  Na441  1  0.75000000  0.60000000  0.50000000  1
  Na  Na442  1  0.75000000  0.60000000  0.70000000  1
  Na  Na443  1  0.75000000  0.60000000  0.90000000  1
  Na  Na444  1  0.75000000  0.80000000  0.10000000  1
  Na  Na445  1  0.75000000  0.80000000  0.30000000  1
  Na  Na446  1  0.75000000  0.80000000  0.50000000  1
  Na  Na447  1  0.75000000  0.80000000  0.70000000  1
  Na  Na448  1  0.75000000  0.80000000  0.90000000  1
  Na  Na449  1  0.85000000  0.00000000  0.10000000  1
  Na  Na450  1  0.85000000  0.00000000  0.30000000  1
  Na  Na451  1  0.85000000  0.00000000  0.50000000  1
  Na  Na452  1  0.85000000  0.00000000  0.70000000  1
  Na  Na453  1  0.85000000  0.00000000  0.90000000  1
  Na  Na454  1  0.85000000  0.20000000  0.10000000  1
  Na  Na455  1  0.85000000  0.20000000  0.30000000  1
  Na  Na456  1  0.85000000  0.20000000  0.50000000  1
  Na  Na457  1  0.85000000  0.20000000  0.70000000  1
  Na  Na458  1  0.85000000  0.20000000  0.90000000  1
  Na  Na459  1  0.85000000  0.40000000  0.10000000  1
  Na  Na460  1  0.85000000  0.40000000  0.30000000  1
  Na  Na461  1  0.85000000  0.40000000  0.50000000  1
  Na  Na462  1  0.85000000  0.40000000  0.70000000  1
  Na  Na463  1  0.85000000  0.40000000  0.90000000  1
  Na  Na464  1  0.85000000  0.60000000  0.10000000  1
  Na  Na465  1  0.85000000  0.60000000  0.30000000  1
  Na  Na466  1  0.85000000  0.60000000  0.50000000  1
  Na  Na467  1  0.85000000  0.60000000  0.70000000  1
  Na  Na468  1  0.85000000  0.60000000  0.90000000  1
  Na  Na469  1  0.85000000  0.80000000  0.10000000  1
  Na  Na470  1  0.85000000  0.80000000  0.30000000  1
  Na  Na471  1  0.85000000  0.80000000  0.50000000  1
  Na  Na472  1  0.85000000  0.80000000  0.70000000  1
  Na  Na473  1  0.85000000  0.80000000  0.90000000  1
  Na  Na474  1  0.95000000  0.00000000  0.10000000  1
  Na  Na475  1  0.95000000  0.00000000  0.30000000  1
  Na  Na476  1  0.95000000  0.00000000  0.50000000  1
  Na  Na477  1  0.95000000  0.00000000  0.70000000  1
  Na  Na478  1  0.95000000  0.00000000  0.90000000  1
  Na  Na479  1  0.95000000  0.20000000  0.10000000  1
  Na  Na480  1  0.95000000  0.20000000  0.30000000  1
  Na  Na481  1  0.95000000  0.20000000  0.50000000  1
  Na  Na482  1  0.95000000  0.20000000  0.70000000  1
  Na  Na483  1  0.95000000  0.20000000  0.90000000  1
  Na  Na484  1  0.95000000  0.40000000  0.10000000  1
  Na  Na485  1  0.95000000  0.40000000  0.30000000  1
  Na  Na486  1  0.95000000  0.40000000  0.50000000  1
  Na  Na487  1  0.95000000  0.40000000  0.70000000  1
  Na  Na488  1  0.95000000  0.40000000  0.90000000  1
  Na  Na489  1  0.95000000  0.60000000  0.10000000  1
  Na  Na490  1  0.95000000  0.60000000  0.30000000  1
  Na  Na491  1  0.95000000  0.60000000  0.50000000  1
  Na  Na492  1  0.95000000  0.60000000  0.70000000  1
  Na  Na493  1  0.95000000  0.60000000  0.90000000  1
  Na  Na494  1  0.95000000  0.80000000  0.10000000  1
  Na  Na495  1  0.95000000  0.80000000  0.30000000  1
  Na  Na496  1  0.95000000  0.80000000  0.50000000  1
  Na  Na497  1  0.95000000  0.80000000  0.70000000  1
  Na  Na498  1  0.95000000  0.80000000  0.90000000  1
  Na  Na499  1  0.00000000  0.10000000  0.10000000  1
  Na  Na500  1  0.00000000  0.10000000  0.30000000  1
  Na  Na501  1  0.00000000  0.10000000  0.50000000  1
  Na  Na502  1  0.00000000  0.10000000  0.70000000  1
  Na  Na503  1  0.00000000  0.10000000  0.90000000  1
  Na  Na504  1  0.00000000  0.30000000  0.10000000  1
  Na  Na505  1  0.00000000  0.30000000  0.30000000  1
  Na  Na506  1  0.00000000  0.30000000  0.50000000  1
  Na  Na507  1  0.00000000  0.30000000  0.70000000  1
  Na  Na508  1  0.00000000  0.30000000  0.90000000  1
  Na  Na509  1  0.00000000  0.50000000  0.10000000  1
  Na  Na510  1  0.00000000  0.50000000  0.30000000  1
  Na  Na511  1  0.00000000  0.50000000  0.50000000  1
  Na  Na512  1  0.00000000  0.50000000  0.70000000  1
  Na  Na513  1  0.00000000  0.50000000  0.90000000  1
  Na  Na514  1  0.00000000  0.70000000  0.10000000  1
  Na  Na515  1  0.00000000  0.70000000  0.30000000  1
  Na  Na516  1  0.00000000  0.70000000  0.50000000  1
  Na  Na517  1  0.00000000  0.70000000  0.70000000  1
  Na  Na518  1  0.00000000  0.70000000  0.90000000  1
  Na  Na519  1  0.00000000  0.90000000  0.10000000  1
  Na  Na520  1  0.00000000  0.90000000  0.30000000  1
  Na  Na521  1  0.00000000  0.90000000  0.50000000  1
  Na  Na522  1  0.00000000  0.90000000  0.90000000  1
  Na  Na523  1  0.10000000  0.10000000  0.10000000  1
  Na  Na524  1  0.10000000  0.10000000  0.30000000  1
  Na  Na525  1  0.10000000  0.10000000  0.50000000  1
  Na  Na526  1  0.10000000  0.10000000  0.70000000  1
  Na  Na527  1  0.10000000  0.10000000  0.90000000  1
  Na  Na528  1  0.10000000  0.30000000  0.10000000  1
  Na  Na529  1  0.10000000  0.30000000  0.30000000  1
  Na  Na530  1  0.10000000  0.30000000  0.50000000  1
  Na  Na531  1  0.10000000  0.30000000  0.70000000  1
  Na  Na532  1  0.10000000  0.30000000  0.90000000  1
  Na  Na533  1  0.10000000  0.50000000  0.10000000  1
  Na  Na534  1  0.10000000  0.50000000  0.30000000  1
  Na  Na535  1  0.10000000  0.50000000  0.50000000  1
  Na  Na536  1  0.10000000  0.50000000  0.70000000  1
  Na  Na537  1  0.10000000  0.50000000  0.90000000  1
  Na  Na538  1  0.10000000  0.70000000  0.10000000  1
  Na  Na539  1  0.10000000  0.70000000  0.30000000  1
  Na  Na540  1  0.10000000  0.70000000  0.50000000  1
  Na  Na541  1  0.10000000  0.70000000  0.70000000  1
  Na  Na542  1  0.10000000  0.70000000  0.90000000  1
  Na  Na543  1  0.10000000  0.90000000  0.10000000  1
  Na  Na544  1  0.10000000  0.90000000  0.30000000  1
  Na  Na545  1  0.10000000  0.90000000  0.50000000  1
  Na  Na546  1  0.10000000  0.90000000  0.70000000  1
  Na  Na547  1  0.10000000  0.90000000  0.90000000  1
  Na  Na548  1  0.20000000  0.10000000  0.10000000  1
  Na  Na549  1  0.20000000  0.10000000  0.30000000  1
  Na  Na550  1  0.20000000  0.10000000  0.50000000  1
  Na  Na551  1  0.20000000  0.10000000  0.70000000  1
  Na  Na552  1  0.20000000  0.10000000  0.90000000  1
  Na  Na553  1  0.20000000  0.30000000  0.10000000  1
  Na  Na554  1  0.20000000  0.30000000  0.30000000  1
  Na  Na555  1  0.20000000  0.30000000  0.50000000  1
  Na  Na556  1  0.20000000  0.30000000  0.70000000  1
  Na  Na557  1  0.20000000  0.30000000  0.90000000  1
  Na  Na558  1  0.20000000  0.50000000  0.10000000  1
  Na  Na559  1  0.20000000  0.50000000  0.30000000  1
  Na  Na560  1  0.20000000  0.50000000  0.50000000  1
  Na  Na561  1  0.20000000  0.50000000  0.70000000  1
  Na  Na562  1  0.20000000  0.50000000  0.90000000  1
  Na  Na563  1  0.20000000  0.70000000  0.10000000  1
  Na  Na564  1  0.20000000  0.70000000  0.30000000  1
  Na  Na565  1  0.20000000  0.70000000  0.50000000  1
  Na  Na566  1  0.20000000  0.70000000  0.70000000  1
  Na  Na567  1  0.20000000  0.70000000  0.90000000  1
  Na  Na568  1  0.20000000  0.90000000  0.10000000  1
  Na  Na569  1  0.20000000  0.90000000  0.30000000  1
  Na  Na570  1  0.20000000  0.90000000  0.50000000  1
  Na  Na571  1  0.20000000  0.90000000  0.70000000  1
  Na  Na572  1  0.20000000  0.90000000  0.90000000  1
  Na  Na573  1  0.30000000  0.10000000  0.10000000  1
  Na  Na574  1  0.30000000  0.10000000  0.30000000  1
  Na  Na575  1  0.30000000  0.10000000  0.50000000  1
  Na  Na576  1  0.30000000  0.10000000  0.70000000  1
  Na  Na577  1  0.30000000  0.10000000  0.90000000  1
  Na  Na578  1  0.30000000  0.30000000  0.10000000  1
  Na  Na579  1  0.30000000  0.30000000  0.30000000  1
  Na  Na580  1  0.30000000  0.30000000  0.50000000  1
  Na  Na581  1  0.30000000  0.30000000  0.70000000  1
  Na  Na582  1  0.30000000  0.30000000  0.90000000  1
  Na  Na583  1  0.30000000  0.50000000  0.10000000  1
  Na  Na584  1  0.30000000  0.50000000  0.30000000  1
  Na  Na585  1  0.30000000  0.50000000  0.50000000  1
  Na  Na586  1  0.30000000  0.50000000  0.70000000  1
  Na  Na587  1  0.30000000  0.50000000  0.90000000  1
  Na  Na588  1  0.30000000  0.70000000  0.10000000  1
  Na  Na589  1  0.30000000  0.70000000  0.30000000  1
  Na  Na590  1  0.30000000  0.70000000  0.50000000  1
  Na  Na591  1  0.30000000  0.70000000  0.70000000  1
  Na  Na592  1  0.30000000  0.70000000  0.90000000  1
  Na  Na593  1  0.30000000  0.90000000  0.10000000  1
  Na  Na594  1  0.30000000  0.90000000  0.30000000  1
  Na  Na595  1  0.30000000  0.90000000  0.50000000  1
  Na  Na596  1  0.30000000  0.90000000  0.70000000  1
  Na  Na597  1  0.30000000  0.90000000  0.90000000  1
  Na  Na598  1  0.40000000  0.10000000  0.10000000  1
  Na  Na599  1  0.40000000  0.10000000  0.30000000  1
  Na  Na600  1  0.40000000  0.10000000  0.50000000  1
  Na  Na601  1  0.40000000  0.10000000  0.70000000  1
  Na  Na602  1  0.40000000  0.10000000  0.90000000  1
  Na  Na603  1  0.40000000  0.30000000  0.10000000  1
  Na  Na604  1  0.40000000  0.30000000  0.30000000  1
  Na  Na605  1  0.40000000  0.30000000  0.50000000  1
  Na  Na606  1  0.40000000  0.30000000  0.70000000  1
  Na  Na607  1  0.40000000  0.30000000  0.90000000  1
  Na  Na608  1  0.40000000  0.50000000  0.10000000  1
  Na  Na609  1  0.40000000  0.50000000  0.30000000  1
  Na  Na610  1  0.40000000  0.50000000  0.50000000  1
  Na  Na611  1  0.40000000  0.50000000  0.70000000  1
  Na  Na612  1  0.40000000  0.50000000  0.90000000  1
  Na  Na613  1  0.40000000  0.70000000  0.10000000  1
  Na  Na614  1  0.40000000  0.70000000  0.30000000  1
  Na  Na615  1  0.40000000  0.70000000  0.50000000  1
  Na  Na616  1  0.40000000  0.70000000  0.70000000  1
  Na  Na617  1  0.40000000  0.70000000  0.90000000  1
  Na  Na618  1  0.40000000  0.90000000  0.10000000  1
  Na  Na619  1  0.40000000  0.90000000  0.30000000  1
  Na  Na620  1  0.40000000  0.90000000  0.50000000  1
  Na  Na621  1  0.40000000  0.90000000  0.70000000  1
  Na  Na622  1  0.40000000  0.90000000  0.90000000  1
  Na  Na623  1  0.50000000  0.10000000  0.10000000  1
  Na  Na624  1  0.50000000  0.10000000  0.30000000  1
  Na  Na625  1  0.50000000  0.10000000  0.50000000  1
  Na  Na626  1  0.50000000  0.10000000  0.70000000  1
  Na  Na627  1  0.50000000  0.10000000  0.90000000  1
  Na  Na628  1  0.50000000  0.30000000  0.10000000  1
  Na  Na629  1  0.50000000  0.30000000  0.30000000  1
  Na  Na630  1  0.50000000  0.30000000  0.50000000  1
  Na  Na631  1  0.50000000  0.30000000  0.70000000  1
  Na  Na632  1  0.50000000  0.30000000  0.90000000  1
  Na  Na633  1  0.50000000  0.50000000  0.10000000  1
  Na  Na634  1  0.50000000  0.50000000  0.30000000  1
  Na  Na635  1  0.50000000  0.50000000  0.50000000  1
  Na  Na636  1  0.50000000  0.50000000  0.70000000  1
  Na  Na637  1  0.50000000  0.50000000  0.90000000  1
  Na  Na638  1  0.50000000  0.70000000  0.10000000  1
  Na  Na639  1  0.50000000  0.70000000  0.30000000  1
  Na  Na640  1  0.50000000  0.70000000  0.50000000  1
  Na  Na641  1  0.50000000  0.70000000  0.70000000  1
  Na  Na642  1  0.50000000  0.70000000  0.90000000  1
  Na  Na643  1  0.50000000  0.90000000  0.10000000  1
  Na  Na644  1  0.50000000  0.90000000  0.30000000  1
  Na  Na645  1  0.50000000  0.90000000  0.50000000  1
  Na  Na646  1  0.50000000  0.90000000  0.70000000  1
  Na  Na647  1  0.50000000  0.90000000  0.90000000  1
  Na  Na648  1  0.60000000  0.10000000  0.10000000  1
  Na  Na649  1  0.60000000  0.10000000  0.30000000  1
  Na  Na650  1  0.60000000  0.10000000  0.50000000  1
  Na  Na651  1  0.60000000  0.10000000  0.70000000  1
  Na  Na652  1  0.60000000  0.10000000  0.90000000  1
  Na  Na653  1  0.60000000  0.30000000  0.10000000  1
  Na  Na654  1  0.60000000  0.30000000  0.30000000  1
  Na  Na655  1  0.60000000  0.30000000  0.50000000  1
  Na  Na656  1  0.60000000  0.30000000  0.70000000  1
  Na  Na657  1  0.60000000  0.30000000  0.90000000  1
  Na  Na658  1  0.60000000  0.50000000  0.10000000  1
  Na  Na659  1  0.60000000  0.50000000  0.30000000  1
  Na  Na660  1  0.60000000  0.50000000  0.50000000  1
  Na  Na661  1  0.60000000  0.50000000  0.70000000  1
  Na  Na662  1  0.60000000  0.50000000  0.90000000  1
  Na  Na663  1  0.60000000  0.70000000  0.10000000  1
  Na  Na664  1  0.60000000  0.70000000  0.30000000  1
  Na  Na665  1  0.60000000  0.70000000  0.50000000  1
  Na  Na666  1  0.60000000  0.70000000  0.70000000  1
  Na  Na667  1  0.60000000  0.70000000  0.90000000  1
  Na  Na668  1  0.60000000  0.90000000  0.10000000  1
  Na  Na669  1  0.60000000  0.90000000  0.30000000  1
  Na  Na670  1  0.60000000  0.90000000  0.50000000  1
  Na  Na671  1  0.60000000  0.90000000  0.70000000  1
  Na  Na672  1  0.60000000  0.90000000  0.90000000  1
  Na  Na673  1  0.70000000  0.10000000  0.10000000  1
  Na  Na674  1  0.70000000  0.10000000  0.30000000  1
  Na  Na675  1  0.70000000  0.10000000  0.50000000  1
  Na  Na676  1  0.70000000  0.10000000  0.70000000  1
  Na  Na677  1  0.70000000  0.10000000  0.90000000  1
  Na  Na678  1  0.70000000  0.30000000  0.10000000  1
  Na  Na679  1  0.70000000  0.30000000  0.30000000  1
  Na  Na680  1  0.70000000  0.30000000  0.50000000  1
  Na  Na681  1  0.70000000  0.30000000  0.70000000  1
  Na  Na682  1  0.70000000  0.30000000  0.90000000  1
  Na  Na683  1  0.70000000  0.50000000  0.10000000  1
  Na  Na684  1  0.70000000  0.50000000  0.30000000  1
  Na  Na685  1  0.70000000  0.50000000  0.50000000  1
  Na  Na686  1  0.70000000  0.50000000  0.70000000  1
  Na  Na687  1  0.70000000  0.50000000  0.90000000  1
  Na  Na688  1  0.70000000  0.70000000  0.10000000  1
  Na  Na689  1  0.70000000  0.70000000  0.30000000  1
  Na  Na690  1  0.70000000  0.70000000  0.50000000  1
  Na  Na691  1  0.70000000  0.70000000  0.70000000  1
  Na  Na692  1  0.70000000  0.70000000  0.90000000  1
  Na  Na693  1  0.70000000  0.90000000  0.10000000  1
  Na  Na694  1  0.70000000  0.90000000  0.30000000  1
  Na  Na695  1  0.70000000  0.90000000  0.50000000  1
  Na  Na696  1  0.70000000  0.90000000  0.70000000  1
  Na  Na697  1  0.70000000  0.90000000  0.90000000  1
  Na  Na698  1  0.80000000  0.10000000  0.10000000  1
  Na  Na699  1  0.80000000  0.10000000  0.30000000  1
  Na  Na700  1  0.80000000  0.10000000  0.50000000  1
  Na  Na701  1  0.80000000  0.10000000  0.70000000  1
  Na  Na702  1  0.80000000  0.10000000  0.90000000  1
  Na  Na703  1  0.80000000  0.30000000  0.10000000  1
  Na  Na704  1  0.80000000  0.30000000  0.30000000  1
  Na  Na705  1  0.80000000  0.30000000  0.50000000  1
  Na  Na706  1  0.80000000  0.30000000  0.70000000  1
  Na  Na707  1  0.80000000  0.30000000  0.90000000  1
  Na  Na708  1  0.80000000  0.50000000  0.10000000  1
  Na  Na709  1  0.80000000  0.50000000  0.30000000  1
  Na  Na710  1  0.80000000  0.50000000  0.50000000  1
  Na  Na711  1  0.80000000  0.50000000  0.70000000  1
  Na  Na712  1  0.80000000  0.50000000  0.90000000  1
  Na  Na713  1  0.80000000  0.70000000  0.10000000  1
  Na  Na714  1  0.80000000  0.70000000  0.30000000  1
  Na  Na715  1  0.80000000  0.70000000  0.50000000  1
  Na  Na716  1  0.80000000  0.70000000  0.70000000  1
  Na  Na717  1  0.80000000  0.70000000  0.90000000  1
  Na  Na718  1  0.80000000  0.90000000  0.10000000  1
  Na  Na719  1  0.80000000  0.90000000  0.30000000  1
  Na  Na720  1  0.80000000  0.90000000  0.50000000  1
  Na  Na721  1  0.80000000  0.90000000  0.70000000  1
  Na  Na722  1  0.80000000  0.90000000  0.90000000  1
  Na  Na723  1  0.90000000  0.10000000  0.10000000  1
  Na  Na724  1  0.90000000  0.10000000  0.30000000  1
  Na  Na725  1  0.90000000  0.10000000  0.50000000  1
  Na  Na726  1  0.90000000  0.10000000  0.70000000  1
  Na  Na727  1  0.90000000  0.10000000  0.90000000  1
  Na  Na728  1  0.90000000  0.30000000  0.10000000  1
  Na  Na729  1  0.90000000  0.30000000  0.30000000  1
  Na  Na730  1  0.90000000  0.30000000  0.50000000  1
  Na  Na731  1  0.90000000  0.30000000  0.70000000  1
  Na  Na732  1  0.90000000  0.30000000  0.90000000  1
  Na  Na733  1  0.90000000  0.50000000  0.10000000  1
  Na  Na734  1  0.90000000  0.50000000  0.30000000  1
  Na  Na735  1  0.90000000  0.50000000  0.50000000  1
  Na  Na736  1  0.90000000  0.50000000  0.70000000  1
  Na  Na737  1  0.90000000  0.50000000  0.90000000  1
  Na  Na738  1  0.90000000  0.70000000  0.10000000  1
  Na  Na739  1  0.90000000  0.70000000  0.30000000  1
  Na  Na740  1  0.90000000  0.70000000  0.50000000  1
  Na  Na741  1  0.90000000  0.70000000  0.70000000  1
  Na  Na742  1  0.90000000  0.70000000  0.90000000  1
  Na  Na743  1  0.90000000  0.90000000  0.10000000  1
  Na  Na744  1  0.90000000  0.90000000  0.30000000  1
  Na  Na745  1  0.90000000  0.90000000  0.50000000  1
  Na  Na746  1  0.90000000  0.90000000  0.70000000  1
  Na  Na747  1  0.90000000  0.90000000  0.90000000  1
  O  O748  1  0.05000000  0.10000000  0.10000000  1
  O  O749  1  0.05000000  0.10000000  0.30000000  1
  O  O750  1  0.05000000  0.10000000  0.50000000  1
  O  O751  1  0.05000000  0.10000000  0.70000000  1
  O  O752  1  0.05000000  0.10000000  0.90000000  1
  O  O753  1  0.05000000  0.30000000  0.10000000  1
  O  O754  1  0.05000000  0.30000000  0.30000000  1
  O  O755  1  0.05000000  0.30000000  0.50000000  1
  O  O756  1  0.05000000  0.30000000  0.70000000  1
  O  O757  1  0.05000000  0.30000000  0.90000000  1
  O  O758  1  0.05000000  0.50000000  0.10000000  1
  O  O759  1  0.05000000  0.50000000  0.30000000  1
  O  O760  1  0.05000000  0.50000000  0.50000000  1
  O  O761  1  0.05000000  0.50000000  0.70000000  1
  O  O762  1  0.05000000  0.50000000  0.90000000  1
  O  O763  1  0.05000000  0.70000000  0.10000000  1
  O  O764  1  0.05000000  0.70000000  0.30000000  1
  O  O765  1  0.05000000  0.70000000  0.50000000  1
  O  O766  1  0.05000000  0.70000000  0.70000000  1
  O  O767  1  0.05000000  0.70000000  0.90000000  1
  O  O768  1  0.05000000  0.90000000  0.10000000  1
  O  O769  1  0.05000000  0.90000000  0.30000000  1
  O  O770  1  0.05000000  0.90000000  0.50000000  1
  O  O771  1  0.05000000  0.90000000  0.70000000  1
  O  O772  1  0.05000000  0.90000000  0.90000000  1
  O  O773  1  0.15000000  0.10000000  0.10000000  1
  O  O774  1  0.15000000  0.10000000  0.30000000  1
  O  O775  1  0.15000000  0.10000000  0.50000000  1
  O  O776  1  0.15000000  0.10000000  0.70000000  1
  O  O777  1  0.15000000  0.10000000  0.90000000  1
  O  O778  1  0.15000000  0.30000000  0.10000000  1
  O  O779  1  0.15000000  0.30000000  0.30000000  1
  O  O780  1  0.15000000  0.30000000  0.50000000  1
  O  O781  1  0.15000000  0.30000000  0.70000000  1
  O  O782  1  0.15000000  0.30000000  0.90000000  1
  O  O783  1  0.15000000  0.50000000  0.10000000  1
  O  O784  1  0.15000000  0.50000000  0.30000000  1
  O  O785  1  0.15000000  0.50000000  0.50000000  1
  O  O786  1  0.15000000  0.50000000  0.70000000  1
  O  O787  1  0.15000000  0.50000000  0.90000000  1
  O  O788  1  0.15000000  0.70000000  0.10000000  1
  O  O789  1  0.15000000  0.70000000  0.30000000  1
  O  O790  1  0.15000000  0.70000000  0.50000000  1
  O  O791  1  0.15000000  0.70000000  0.70000000  1
  O  O792  1  0.15000000  0.70000000  0.90000000  1
  O  O793  1  0.15000000  0.90000000  0.10000000  1
  O  O794  1  0.15000000  0.90000000  0.30000000  1
  O  O795  1  0.15000000  0.90000000  0.50000000  1
  O  O796  1  0.15000000  0.90000000  0.70000000  1
  O  O797  1  0.15000000  0.90000000  0.90000000  1
  O  O798  1  0.25000000  0.10000000  0.10000000  1
  O  O799  1  0.25000000  0.10000000  0.30000000  1
  O  O800  1  0.25000000  0.10000000  0.50000000  1
  O  O801  1  0.25000000  0.10000000  0.70000000  1
  O  O802  1  0.25000000  0.10000000  0.90000000  1
  O  O803  1  0.25000000  0.30000000  0.10000000  1
  O  O804  1  0.25000000  0.30000000  0.30000000  1
  O  O805  1  0.25000000  0.30000000  0.50000000  1
  O  O806  1  0.25000000  0.30000000  0.70000000  1
  O  O807  1  0.25000000  0.30000000  0.90000000  1
  O  O808  1  0.25000000  0.50000000  0.10000000  1
  O  O809  1  0.25000000  0.50000000  0.30000000  1
  O  O810  1  0.25000000  0.50000000  0.50000000  1
  O  O811  1  0.25000000  0.50000000  0.70000000  1
  O  O812  1  0.25000000  0.50000000  0.90000000  1
  O  O813  1  0.25000000  0.70000000  0.10000000  1
  O  O814  1  0.25000000  0.70000000  0.30000000  1
  O  O815  1  0.25000000  0.70000000  0.50000000  1
  O  O816  1  0.25000000  0.70000000  0.70000000  1
  O  O817  1  0.25000000  0.70000000  0.90000000  1
  O  O818  1  0.25000000  0.90000000  0.10000000  1
  O  O819  1  0.25000000  0.90000000  0.30000000  1
  O  O820  1  0.25000000  0.90000000  0.50000000  1
  O  O821  1  0.25000000  0.90000000  0.70000000  1
  O  O822  1  0.25000000  0.90000000  0.90000000  1
  O  O823  1  0.35000000  0.10000000  0.10000000  1
  O  O824  1  0.35000000  0.10000000  0.30000000  1
  O  O825  1  0.35000000  0.10000000  0.50000000  1
  O  O826  1  0.35000000  0.10000000  0.70000000  1
  O  O827  1  0.35000000  0.10000000  0.90000000  1
  O  O828  1  0.35000000  0.30000000  0.10000000  1
  O  O829  1  0.35000000  0.30000000  0.30000000  1
  O  O830  1  0.35000000  0.30000000  0.50000000  1
  O  O831  1  0.35000000  0.30000000  0.70000000  1
  O  O832  1  0.35000000  0.30000000  0.90000000  1
  O  O833  1  0.35000000  0.50000000  0.10000000  1
  O  O834  1  0.35000000  0.50000000  0.30000000  1
  O  O835  1  0.35000000  0.50000000  0.50000000  1
  O  O836  1  0.35000000  0.50000000  0.70000000  1
  O  O837  1  0.35000000  0.50000000  0.90000000  1
  O  O838  1  0.35000000  0.70000000  0.10000000  1
  O  O839  1  0.35000000  0.70000000  0.30000000  1
  O  O840  1  0.35000000  0.70000000  0.50000000  1
  O  O841  1  0.35000000  0.70000000  0.70000000  1
  O  O842  1  0.35000000  0.70000000  0.90000000  1
  O  O843  1  0.35000000  0.90000000  0.10000000  1
  O  O844  1  0.35000000  0.90000000  0.30000000  1
  O  O845  1  0.35000000  0.90000000  0.50000000  1
  O  O846  1  0.35000000  0.90000000  0.70000000  1
  O  O847  1  0.35000000  0.90000000  0.90000000  1
  O  O848  1  0.45000000  0.10000000  0.10000000  1
  O  O849  1  0.45000000  0.10000000  0.30000000  1
  O  O850  1  0.45000000  0.10000000  0.50000000  1
  O  O851  1  0.45000000  0.10000000  0.70000000  1
  O  O852  1  0.45000000  0.10000000  0.90000000  1
  O  O853  1  0.45000000  0.30000000  0.10000000  1
  O  O854  1  0.45000000  0.30000000  0.30000000  1
  O  O855  1  0.45000000  0.30000000  0.50000000  1
  O  O856  1  0.45000000  0.30000000  0.70000000  1
  O  O857  1  0.45000000  0.30000000  0.90000000  1
  O  O858  1  0.45000000  0.50000000  0.10000000  1
  O  O859  1  0.45000000  0.50000000  0.30000000  1
  O  O860  1  0.45000000  0.50000000  0.50000000  1
  O  O861  1  0.45000000  0.50000000  0.70000000  1
  O  O862  1  0.45000000  0.50000000  0.90000000  1
  O  O863  1  0.45000000  0.70000000  0.10000000  1
  O  O864  1  0.45000000  0.70000000  0.30000000  1
  O  O865  1  0.45000000  0.70000000  0.50000000  1
  O  O866  1  0.45000000  0.70000000  0.70000000  1
  O  O867  1  0.45000000  0.70000000  0.90000000  1
  O  O868  1  0.45000000  0.90000000  0.10000000  1
  O  O869  1  0.45000000  0.90000000  0.30000000  1
  O  O870  1  0.45000000  0.90000000  0.50000000  1
  O  O871  1  0.45000000  0.90000000  0.70000000  1
  O  O872  1  0.45000000  0.90000000  0.90000000  1
  O  O873  1  0.55000000  0.10000000  0.10000000  1
  O  O874  1  0.55000000  0.10000000  0.30000000  1
  O  O875  1  0.55000000  0.10000000  0.50000000  1
  O  O876  1  0.55000000  0.10000000  0.70000000  1
  O  O877  1  0.55000000  0.10000000  0.90000000  1
  O  O878  1  0.55000000  0.30000000  0.10000000  1
  O  O879  1  0.55000000  0.30000000  0.30000000  1
  O  O880  1  0.55000000  0.30000000  0.50000000  1
  O  O881  1  0.55000000  0.30000000  0.70000000  1
  O  O882  1  0.55000000  0.30000000  0.90000000  1
  O  O883  1  0.55000000  0.50000000  0.10000000  1
  O  O884  1  0.55000000  0.50000000  0.30000000  1
  O  O885  1  0.55000000  0.50000000  0.50000000  1
  O  O886  1  0.55000000  0.50000000  0.70000000  1
  O  O887  1  0.55000000  0.50000000  0.90000000  1
  O  O888  1  0.55000000  0.70000000  0.10000000  1
  O  O889  1  0.55000000  0.70000000  0.30000000  1
  O  O890  1  0.55000000  0.70000000  0.50000000  1
  O  O891  1  0.55000000  0.70000000  0.70000000  1
  O  O892  1  0.55000000  0.70000000  0.90000000  1
  O  O893  1  0.55000000  0.90000000  0.10000000  1
  O  O894  1  0.55000000  0.90000000  0.30000000  1
  O  O895  1  0.55000000  0.90000000  0.50000000  1
  O  O896  1  0.55000000  0.90000000  0.70000000  1
  O  O897  1  0.55000000  0.90000000  0.90000000  1
  O  O898  1  0.65000000  0.10000000  0.10000000  1
  O  O899  1  0.65000000  0.10000000  0.30000000  1
  O  O900  1  0.65000000  0.10000000  0.50000000  1
  O  O901  1  0.65000000  0.10000000  0.70000000  1
  O  O902  1  0.65000000  0.10000000  0.90000000  1
  O  O903  1  0.65000000  0.30000000  0.10000000  1
  O  O904  1  0.65000000  0.30000000  0.30000000  1
  O  O905  1  0.65000000  0.30000000  0.50000000  1
  O  O906  1  0.65000000  0.30000000  0.70000000  1
  O  O907  1  0.65000000  0.30000000  0.90000000  1
  O  O908  1  0.65000000  0.50000000  0.10000000  1
  O  O909  1  0.65000000  0.50000000  0.30000000  1
  O  O910  1  0.65000000  0.50000000  0.50000000  1
  O  O911  1  0.65000000  0.50000000  0.70000000  1
  O  O912  1  0.65000000  0.50000000  0.90000000  1
  O  O913  1  0.65000000  0.70000000  0.10000000  1
  O  O914  1  0.65000000  0.70000000  0.30000000  1
  O  O915  1  0.65000000  0.70000000  0.50000000  1
  O  O916  1  0.65000000  0.70000000  0.70000000  1
  O  O917  1  0.65000000  0.70000000  0.90000000  1
  O  O918  1  0.65000000  0.90000000  0.10000000  1
  O  O919  1  0.65000000  0.90000000  0.30000000  1
  O  O920  1  0.65000000  0.90000000  0.50000000  1
  O  O921  1  0.65000000  0.90000000  0.70000000  1
  O  O922  1  0.65000000  0.90000000  0.90000000  1
  O  O923  1  0.75000000  0.10000000  0.10000000  1
  O  O924  1  0.75000000  0.10000000  0.30000000  1
  O  O925  1  0.75000000  0.10000000  0.50000000  1
  O  O926  1  0.75000000  0.10000000  0.70000000  1
  O  O927  1  0.75000000  0.10000000  0.90000000  1
  O  O928  1  0.75000000  0.30000000  0.10000000  1
  O  O929  1  0.75000000  0.30000000  0.30000000  1
  O  O930  1  0.75000000  0.30000000  0.50000000  1
  O  O931  1  0.75000000  0.30000000  0.70000000  1
  O  O932  1  0.75000000  0.30000000  0.90000000  1
  O  O933  1  0.75000000  0.50000000  0.10000000  1
  O  O934  1  0.75000000  0.50000000  0.30000000  1
  O  O935  1  0.75000000  0.50000000  0.50000000  1
  O  O936  1  0.75000000  0.50000000  0.70000000  1
  O  O937  1  0.75000000  0.50000000  0.90000000  1
  O  O938  1  0.75000000  0.70000000  0.10000000  1
  O  O939  1  0.75000000  0.70000000  0.30000000  1
  O  O940  1  0.75000000  0.70000000  0.50000000  1
  O  O941  1  0.75000000  0.70000000  0.70000000  1
  O  O942  1  0.75000000  0.70000000  0.90000000  1
  O  O943  1  0.75000000  0.90000000  0.10000000  1
  O  O944  1  0.75000000  0.90000000  0.30000000  1
  O  O945  1  0.75000000  0.90000000  0.50000000  1
  O  O946  1  0.75000000  0.90000000  0.70000000  1
  O  O947  1  0.75000000  0.90000000  0.90000000  1
  O  O948  1  0.85000000  0.10000000  0.10000000  1
  O  O949  1  0.85000000  0.10000000  0.30000000  1
  O  O950  1  0.85000000  0.10000000  0.50000000  1
  O  O951  1  0.85000000  0.10000000  0.70000000  1
  O  O952  1  0.85000000  0.10000000  0.90000000  1
  O  O953  1  0.85000000  0.30000000  0.10000000  1
  O  O954  1  0.85000000  0.30000000  0.30000000  1
  O  O955  1  0.85000000  0.30000000  0.50000000  1
  O  O956  1  0.85000000  0.30000000  0.70000000  1
  O  O957  1  0.85000000  0.30000000  0.90000000  1
  O  O958  1  0.85000000  0.50000000  0.10000000  1
  O  O959  1  0.85000000  0.50000000  0.30000000  1
  O  O960  1  0.85000000  0.50000000  0.50000000  1
  O  O961  1  0.85000000  0.50000000  0.70000000  1
  O  O962  1  0.85000000  0.50000000  0.90000000  1
  O  O963  1  0.85000000  0.70000000  0.10000000  1
  O  O964  1  0.85000000  0.70000000  0.30000000  1
  O  O965  1  0.85000000  0.70000000  0.50000000  1
  O  O966  1  0.85000000  0.70000000  0.70000000  1
  O  O967  1  0.85000000  0.70000000  0.90000000  1
  O  O968  1  0.85000000  0.90000000  0.10000000  1
  O  O969  1  0.85000000  0.90000000  0.30000000  1
  O  O970  1  0.85000000  0.90000000  0.50000000  1
  O  O971  1  0.85000000  0.90000000  0.70000000  1
  O  O972  1  0.85000000  0.90000000  0.90000000  1
  O  O973  1  0.95000000  0.10000000  0.10000000  1
  O  O974  1  0.95000000  0.10000000  0.30000000  1
  O  O975  1  0.95000000  0.10000000  0.50000000  1
  O  O976  1  0.95000000  0.10000000  0.70000000  1
  O  O977  1  0.95000000  0.10000000  0.90000000  1
  O  O978  1  0.95000000  0.30000000  0.10000000  1
  O  O979  1  0.95000000  0.30000000  0.30000000  1
  O  O980  1  0.95000000  0.30000000  0.50000000  1
  O  O981  1  0.95000000  0.30000000  0.70000000  1
  O  O982  1  0.95000000  0.30000000  0.90000000  1
  O  O983  1  0.95000000  0.50000000  0.10000000  1
  O  O984  1  0.95000000  0.50000000  0.30000000  1
  O  O985  1  0.95000000  0.50000000  0.50000000  1
  O  O986  1  0.95000000  0.50000000  0.70000000  1
  O  O987  1  0.95000000  0.50000000  0.90000000  1
  O  O988  1  0.95000000  0.70000000  0.10000000  1
  O  O989  1  0.95000000  0.70000000  0.30000000  1
  O  O990  1  0.95000000  0.70000000  0.50000000  1
  O  O991  1  0.95000000  0.70000000  0.70000000  1
  O  O992  1  0.95000000  0.70000000  0.90000000  1
  O  O993  1  0.95000000  0.90000000  0.10000000  1
  O  O994  1  0.95000000  0.90000000  0.30000000  1
  O  O995  1  0.95000000  0.90000000  0.50000000  1
  O  O996  1  0.95000000  0.90000000  0.70000000  1
  O  O997  1  0.95000000  0.90000000  0.90000000  1
  Cl  Cl998  1  0.00000000  0.00000000  0.00000000  1
  Cl  Cl999  1  0.00000000  0.00000000  0.20000000  1
  Cl  Cl1000  1  0.00000000  0.00000000  0.40000000  1
  Cl  Cl1001  1  0.00000000  0.00000000  0.60000000  1
  Cl  Cl1002  1  0.00000000  0.00000000  0.80000000  1
  Cl  Cl1003  1  0.00000000  0.20000000  0.00000000  1
  Cl  Cl1004  1  0.00000000  0.20000000  0.20000000  1
  Cl  Cl1005  1  0.00000000  0.20000000  0.40000000  1
  Cl  Cl1006  1  0.00000000  0.20000000  0.60000000  1
  Cl  Cl1007  1  0.00000000  0.20000000  0.80000000  1
  Cl  Cl1008  1  0.00000000  0.40000000  0.00000000  1
  Cl  Cl1009  1  0.00000000  0.40000000  0.20000000  1
  Cl  Cl1010  1  0.00000000  0.40000000  0.40000000  1
  Cl  Cl1011  1  0.00000000  0.40000000  0.60000000  1
  Cl  Cl1012  1  0.00000000  0.40000000  0.80000000  1
  Cl  Cl1013  1  0.00000000  0.60000000  0.00000000  1
  Cl  Cl1014  1  0.00000000  0.60000000  0.20000000  1
  Cl  Cl1015  1  0.00000000  0.60000000  0.40000000  1
  Cl  Cl1016  1  0.00000000  0.60000000  0.60000000  1
  Cl  Cl1017  1  0.00000000  0.60000000  0.80000000  1
  Cl  Cl1018  1  0.00000000  0.80000000  0.00000000  1
  Cl  Cl1019  1  0.00000000  0.80000000  0.20000000  1
  Cl  Cl1020  1  0.00000000  0.80000000  0.40000000  1
  Cl  Cl1021  1  0.00000000  0.80000000  0.60000000  1
  Cl  Cl1022  1  0.00000000  0.80000000  0.80000000  1
  Cl  Cl1023  1  0.10000000  0.00000000  0.00000000  1
  Cl  Cl1024  1  0.10000000  0.00000000  0.20000000  1
  Cl  Cl1025  1  0.10000000  0.00000000  0.40000000  1
  Cl  Cl1026  1  0.10000000  0.00000000  0.60000000  1
  Cl  Cl1027  1  0.10000000  0.00000000  0.80000000  1
  Cl  Cl1028  1  0.10000000  0.20000000  0.00000000  1
  Cl  Cl1029  1  0.10000000  0.20000000  0.20000000  1
  Cl  Cl1030  1  0.10000000  0.20000000  0.40000000  1
  Cl  Cl1031  1  0.10000000  0.20000000  0.60000000  1
  Cl  Cl1032  1  0.10000000  0.20000000  0.80000000  1
  Cl  Cl1033  1  0.10000000  0.40000000  0.00000000  1
  Cl  Cl1034  1  0.10000000  0.40000000  0.20000000  1
  Cl  Cl1035  1  0.10000000  0.40000000  0.40000000  1
  Cl  Cl1036  1  0.10000000  0.40000000  0.60000000  1
  Cl  Cl1037  1  0.10000000  0.40000000  0.80000000  1
  Cl  Cl1038  1  0.10000000  0.60000000  0.00000000  1
  Cl  Cl1039  1  0.10000000  0.60000000  0.20000000  1
  Cl  Cl1040  1  0.10000000  0.60000000  0.40000000  1
  Cl  Cl1041  1  0.10000000  0.60000000  0.60000000  1
  Cl  Cl1042  1  0.10000000  0.60000000  0.80000000  1
  Cl  Cl1043  1  0.10000000  0.80000000  0.00000000  1
  Cl  Cl1044  1  0.10000000  0.80000000  0.20000000  1
  Cl  Cl1045  1  0.10000000  0.80000000  0.40000000  1
  Cl  Cl1046  1  0.10000000  0.80000000  0.60000000  1
  Cl  Cl1047  1  0.10000000  0.80000000  0.80000000  1
  Cl  Cl1048  1  0.20000000  0.00000000  0.00000000  1
  Cl  Cl1049  1  0.20000000  0.00000000  0.20000000  1
  Cl  Cl1050  1  0.20000000  0.00000000  0.40000000  1
  Cl  Cl1051  1  0.20000000  0.00000000  0.60000000  1
  Cl  Cl1052  1  0.20000000  0.00000000  0.80000000  1
  Cl  Cl1053  1  0.20000000  0.20000000  0.00000000  1
  Cl  Cl1054  1  0.20000000  0.20000000  0.20000000  1
  Cl  Cl1055  1  0.20000000  0.20000000  0.40000000  1
  Cl  Cl1056  1  0.20000000  0.20000000  0.60000000  1
  Cl  Cl1057  1  0.20000000  0.20000000  0.80000000  1
  Cl  Cl1058  1  0.20000000  0.40000000  0.00000000  1
  Cl  Cl1059  1  0.20000000  0.40000000  0.20000000  1
  Cl  Cl1060  1  0.20000000  0.40000000  0.40000000  1
  Cl  Cl1061  1  0.20000000  0.40000000  0.60000000  1
  Cl  Cl1062  1  0.20000000  0.40000000  0.80000000  1
  Cl  Cl1063  1  0.20000000  0.60000000  0.00000000  1
  Cl  Cl1064  1  0.20000000  0.60000000  0.20000000  1
  Cl  Cl1065  1  0.20000000  0.60000000  0.40000000  1
  Cl  Cl1066  1  0.20000000  0.60000000  0.60000000  1
  Cl  Cl1067  1  0.20000000  0.60000000  0.80000000  1
  Cl  Cl1068  1  0.20000000  0.80000000  0.00000000  1
  Cl  Cl1069  1  0.20000000  0.80000000  0.20000000  1
  Cl  Cl1070  1  0.20000000  0.80000000  0.40000000  1
  Cl  Cl1071  1  0.20000000  0.80000000  0.60000000  1
  Cl  Cl1072  1  0.20000000  0.80000000  0.80000000  1
  Cl  Cl1073  1  0.30000000  0.00000000  0.00000000  1
  Cl  Cl1074  1  0.30000000  0.00000000  0.20000000  1
  Cl  Cl1075  1  0.30000000  0.00000000  0.40000000  1
  Cl  Cl1076  1  0.30000000  0.00000000  0.60000000  1
  Cl  Cl1077  1  0.30000000  0.00000000  0.80000000  1
  Cl  Cl1078  1  0.30000000  0.20000000  0.00000000  1
  Cl  Cl1079  1  0.30000000  0.20000000  0.20000000  1
  Cl  Cl1080  1  0.30000000  0.20000000  0.40000000  1
  Cl  Cl1081  1  0.30000000  0.20000000  0.60000000  1
  Cl  Cl1082  1  0.30000000  0.20000000  0.80000000  1
  Cl  Cl1083  1  0.30000000  0.40000000  0.00000000  1
  Cl  Cl1084  1  0.30000000  0.40000000  0.20000000  1
  Cl  Cl1085  1  0.30000000  0.40000000  0.40000000  1
  Cl  Cl1086  1  0.30000000  0.40000000  0.60000000  1
  Cl  Cl1087  1  0.30000000  0.40000000  0.80000000  1
  Cl  Cl1088  1  0.30000000  0.60000000  0.00000000  1
  Cl  Cl1089  1  0.30000000  0.60000000  0.20000000  1
  Cl  Cl1090  1  0.30000000  0.60000000  0.40000000  1
  Cl  Cl1091  1  0.30000000  0.60000000  0.60000000  1
  Cl  Cl1092  1  0.30000000  0.60000000  0.80000000  1
  Cl  Cl1093  1  0.30000000  0.80000000  0.00000000  1
  Cl  Cl1094  1  0.30000000  0.80000000  0.20000000  1
  Cl  Cl1095  1  0.30000000  0.80000000  0.40000000  1
  Cl  Cl1096  1  0.30000000  0.80000000  0.60000000  1
  Cl  Cl1097  1  0.30000000  0.80000000  0.80000000  1
  Cl  Cl1098  1  0.40000000  0.00000000  0.00000000  1
  Cl  Cl1099  1  0.40000000  0.00000000  0.20000000  1
  Cl  Cl1100  1  0.40000000  0.00000000  0.40000000  1
  Cl  Cl1101  1  0.40000000  0.00000000  0.60000000  1
  Cl  Cl1102  1  0.40000000  0.00000000  0.80000000  1
  Cl  Cl1103  1  0.40000000  0.20000000  0.00000000  1
  Cl  Cl1104  1  0.40000000  0.20000000  0.20000000  1
  Cl  Cl1105  1  0.40000000  0.20000000  0.40000000  1
  Cl  Cl1106  1  0.40000000  0.20000000  0.60000000  1
  Cl  Cl1107  1  0.40000000  0.20000000  0.80000000  1
  Cl  Cl1108  1  0.40000000  0.40000000  0.00000000  1
  Cl  Cl1109  1  0.40000000  0.40000000  0.20000000  1
  Cl  Cl1110  1  0.40000000  0.40000000  0.40000000  1
  Cl  Cl1111  1  0.40000000  0.40000000  0.60000000  1
  Cl  Cl1112  1  0.40000000  0.40000000  0.80000000  1
  Cl  Cl1113  1  0.40000000  0.60000000  0.00000000  1
  Cl  Cl1114  1  0.40000000  0.60000000  0.20000000  1
  Cl  Cl1115  1  0.40000000  0.60000000  0.40000000  1
  Cl  Cl1116  1  0.40000000  0.60000000  0.60000000  1
  Cl  Cl1117  1  0.40000000  0.60000000  0.80000000  1
  Cl  Cl1118  1  0.40000000  0.80000000  0.00000000  1
  Cl  Cl1119  1  0.40000000  0.80000000  0.20000000  1
  Cl  Cl1120  1  0.40000000  0.80000000  0.40000000  1
  Cl  Cl1121  1  0.40000000  0.80000000  0.60000000  1
  Cl  Cl1122  1  0.40000000  0.80000000  0.80000000  1
  Cl  Cl1123  1  0.50000000  0.00000000  0.00000000  1
  Cl  Cl1124  1  0.50000000  0.00000000  0.20000000  1
  Cl  Cl1125  1  0.50000000  0.00000000  0.40000000  1
  Cl  Cl1126  1  0.50000000  0.00000000  0.60000000  1
  Cl  Cl1127  1  0.50000000  0.00000000  0.80000000  1
  Cl  Cl1128  1  0.50000000  0.20000000  0.00000000  1
  Cl  Cl1129  1  0.50000000  0.20000000  0.20000000  1
  Cl  Cl1130  1  0.50000000  0.20000000  0.40000000  1
  Cl  Cl1131  1  0.50000000  0.20000000  0.60000000  1
  Cl  Cl1132  1  0.50000000  0.20000000  0.80000000  1
  Cl  Cl1133  1  0.50000000  0.40000000  0.00000000  1
  Cl  Cl1134  1  0.50000000  0.40000000  0.20000000  1
  Cl  Cl1135  1  0.50000000  0.40000000  0.40000000  1
  Cl  Cl1136  1  0.50000000  0.40000000  0.60000000  1
  Cl  Cl1137  1  0.50000000  0.40000000  0.80000000  1
  Cl  Cl1138  1  0.50000000  0.60000000  0.00000000  1
  Cl  Cl1139  1  0.50000000  0.60000000  0.20000000  1
  Cl  Cl1140  1  0.50000000  0.60000000  0.40000000  1
  Cl  Cl1141  1  0.50000000  0.60000000  0.60000000  1
  Cl  Cl1142  1  0.50000000  0.60000000  0.80000000  1
  Cl  Cl1143  1  0.50000000  0.80000000  0.00000000  1
  Cl  Cl1144  1  0.50000000  0.80000000  0.20000000  1
  Cl  Cl1145  1  0.50000000  0.80000000  0.40000000  1
  Cl  Cl1146  1  0.50000000  0.80000000  0.60000000  1
  Cl  Cl1147  1  0.50000000  0.80000000  0.80000000  1
  Cl  Cl1148  1  0.60000000  0.00000000  0.00000000  1
  Cl  Cl1149  1  0.60000000  0.00000000  0.20000000  1
  Cl  Cl1150  1  0.60000000  0.00000000  0.40000000  1
  Cl  Cl1151  1  0.60000000  0.00000000  0.60000000  1
  Cl  Cl1152  1  0.60000000  0.00000000  0.80000000  1
  Cl  Cl1153  1  0.60000000  0.20000000  0.00000000  1
  Cl  Cl1154  1  0.60000000  0.20000000  0.20000000  1
  Cl  Cl1155  1  0.60000000  0.20000000  0.40000000  1
  Cl  Cl1156  1  0.60000000  0.20000000  0.60000000  1
  Cl  Cl1157  1  0.60000000  0.20000000  0.80000000  1
  Cl  Cl1158  1  0.60000000  0.40000000  0.00000000  1
  Cl  Cl1159  1  0.60000000  0.40000000  0.20000000  1
  Cl  Cl1160  1  0.60000000  0.40000000  0.40000000  1
  Cl  Cl1161  1  0.60000000  0.40000000  0.60000000  1
  Cl  Cl1162  1  0.60000000  0.40000000  0.80000000  1
  Cl  Cl1163  1  0.60000000  0.60000000  0.00000000  1
  Cl  Cl1164  1  0.60000000  0.60000000  0.20000000  1
  Cl  Cl1165  1  0.60000000  0.60000000  0.40000000  1
  Cl  Cl1166  1  0.60000000  0.60000000  0.60000000  1
  Cl  Cl1167  1  0.60000000  0.60000000  0.80000000  1
  Cl  Cl1168  1  0.60000000  0.80000000  0.00000000  1
  Cl  Cl1169  1  0.60000000  0.80000000  0.20000000  1
  Cl  Cl1170  1  0.60000000  0.80000000  0.40000000  1
  Cl  Cl1171  1  0.60000000  0.80000000  0.60000000  1
  Cl  Cl1172  1  0.60000000  0.80000000  0.80000000  1
  Cl  Cl1173  1  0.70000000  0.00000000  0.00000000  1
  Cl  Cl1174  1  0.70000000  0.00000000  0.20000000  1
  Cl  Cl1175  1  0.70000000  0.00000000  0.40000000  1
  Cl  Cl1176  1  0.70000000  0.00000000  0.60000000  1
  Cl  Cl1177  1  0.70000000  0.00000000  0.80000000  1
  Cl  Cl1178  1  0.70000000  0.20000000  0.00000000  1
  Cl  Cl1179  1  0.70000000  0.20000000  0.20000000  1
  Cl  Cl1180  1  0.70000000  0.20000000  0.40000000  1
  Cl  Cl1181  1  0.70000000  0.20000000  0.60000000  1
  Cl  Cl1182  1  0.70000000  0.20000000  0.80000000  1
  Cl  Cl1183  1  0.70000000  0.40000000  0.00000000  1
  Cl  Cl1184  1  0.70000000  0.40000000  0.20000000  1
  Cl  Cl1185  1  0.70000000  0.40000000  0.40000000  1
  Cl  Cl1186  1  0.70000000  0.40000000  0.60000000  1
  Cl  Cl1187  1  0.70000000  0.40000000  0.80000000  1
  Cl  Cl1188  1  0.70000000  0.60000000  0.00000000  1
  Cl  Cl1189  1  0.70000000  0.60000000  0.20000000  1
  Cl  Cl1190  1  0.70000000  0.60000000  0.40000000  1
  Cl  Cl1191  1  0.70000000  0.60000000  0.60000000  1
  Cl  Cl1192  1  0.70000000  0.60000000  0.80000000  1
  Cl  Cl1193  1  0.70000000  0.80000000  0.00000000  1
  Cl  Cl1194  1  0.70000000  0.80000000  0.20000000  1
  Cl  Cl1195  1  0.70000000  0.80000000  0.40000000  1
  Cl  Cl1196  1  0.70000000  0.80000000  0.60000000  1
  Cl  Cl1197  1  0.70000000  0.80000000  0.80000000  1
  Cl  Cl1198  1  0.80000000  0.00000000  0.00000000  1
  Cl  Cl1199  1  0.80000000  0.00000000  0.20000000  1
  Cl  Cl1200  1  0.80000000  0.00000000  0.40000000  1
  Cl  Cl1201  1  0.80000000  0.00000000  0.60000000  1
  Cl  Cl1202  1  0.80000000  0.00000000  0.80000000  1
  Cl  Cl1203  1  0.80000000  0.20000000  0.00000000  1
  Cl  Cl1204  1  0.80000000  0.20000000  0.20000000  1
  Cl  Cl1205  1  0.80000000  0.20000000  0.40000000  1
  Cl  Cl1206  1  0.80000000  0.20000000  0.60000000  1
  Cl  Cl1207  1  0.80000000  0.20000000  0.80000000  1
  Cl  Cl1208  1  0.80000000  0.40000000  0.00000000  1
  Cl  Cl1209  1  0.80000000  0.40000000  0.20000000  1
  Cl  Cl1210  1  0.80000000  0.40000000  0.40000000  1
  Cl  Cl1211  1  0.80000000  0.40000000  0.60000000  1
  Cl  Cl1212  1  0.80000000  0.40000000  0.80000000  1
  Cl  Cl1213  1  0.80000000  0.60000000  0.00000000  1
  Cl  Cl1214  1  0.80000000  0.60000000  0.20000000  1
  Cl  Cl1215  1  0.80000000  0.60000000  0.40000000  1
  Cl  Cl1216  1  0.80000000  0.60000000  0.60000000  1
  Cl  Cl1217  1  0.80000000  0.60000000  0.80000000  1
  Cl  Cl1218  1  0.80000000  0.80000000  0.00000000  1
  Cl  Cl1219  1  0.80000000  0.80000000  0.20000000  1
  Cl  Cl1220  1  0.80000000  0.80000000  0.40000000  1
  Cl  Cl1221  1  0.80000000  0.80000000  0.60000000  1
  Cl  Cl1222  1  0.80000000  0.80000000  0.80000000  1
  Cl  Cl1223  1  0.90000000  0.00000000  0.00000000  1
  Cl  Cl1224  1  0.90000000  0.00000000  0.20000000  1
  Cl  Cl1225  1  0.90000000  0.00000000  0.40000000  1
  Cl  Cl1226  1  0.90000000  0.00000000  0.60000000  1
  Cl  Cl1227  1  0.90000000  0.00000000  0.80000000  1
  Cl  Cl1228  1  0.90000000  0.20000000  0.00000000  1
  Cl  Cl1229  1  0.90000000  0.20000000  0.20000000  1
  Cl  Cl1230  1  0.90000000  0.20000000  0.40000000  1
  Cl  Cl1231  1  0.90000000  0.20000000  0.60000000  1
  Cl  Cl1232  1  0.90000000  0.20000000  0.80000000  1
  Cl  Cl1233  1  0.90000000  0.40000000  0.00000000  1
  Cl  Cl1234  1  0.90000000  0.40000000  0.20000000  1
  Cl  Cl1235  1  0.90000000  0.40000000  0.40000000  1
  Cl  Cl1236  1  0.90000000  0.40000000  0.60000000  1
  Cl  Cl1237  1  0.90000000  0.40000000  0.80000000  1
  Cl  Cl1238  1  0.90000000  0.60000000  0.00000000  1
  Cl  Cl1239  1  0.90000000  0.60000000  0.20000000  1
  Cl  Cl1240  1  0.90000000  0.60000000  0.40000000  1
  Cl  Cl1241  1  0.90000000  0.60000000  0.60000000  1
  Cl  Cl1242  1  0.90000000  0.60000000  0.80000000  1
  Cl  Cl1243  1  0.90000000  0.80000000  0.00000000  1
  Cl  Cl1244  1  0.90000000  0.80000000  0.20000000  1
  Cl  Cl1245  1  0.90000000  0.80000000  0.40000000  1
  Cl  Cl1246  1  0.90000000  0.80000000  0.60000000  1
  Cl  Cl1247  1  0.90000000  0.80000000  0.80000000  1
