# generated using pymatgen
data_Na9936Al63(ClO)3375
_symmetry_space_group_name_H-M   'P 1'
_cell_length_a   67.51500000
_cell_length_b   67.51500000
_cell_length_c   67.51500000
_cell_angle_alpha   90.00000000
_cell_angle_beta   90.00000000
_cell_angle_gamma   90.00000000
_symmetry_Int_Tables_number   1
_chemical_formula_structural   Na9936Al63(ClO)3375
_chemical_formula_sum   'Na9936 Al63 Cl3375 O3375'
_cell_volume   307751.95181588
_cell_formula_units_Z   1
loop_
 _symmetry_equiv_pos_site_id
 _symmetry_equiv_pos_as_xyz
  1  'x, y, z'
loop_
 _atom_site_type_symbol
 _atom_site_label
 _atom_site_symmetry_multiplicity
 _atom_site_fract_x
 _atom_site_fract_y
 _atom_site_fract_z
 _atom_site_occupancy
  Al  Al0  1  0.03333333  0.03333333  0.00000000  1
  Na  Na1  1  0.03333333  0.03333333  0.20000000  1
  Al  Al2  1  0.03333333  0.03333333  0.40000000  1
  Na  Na3  1  0.03333333  0.03333333  0.60000000  1
  Al  Al4  1  0.03333333  0.03333333  0.80000000  1
  Na  Na5  1  0.03333333  0.23333333  0.00000000  1
  Al  Al6  1  0.03333333  0.23333333  0.20000000  1
  Na  Na7  1  0.03333333  0.23333333  0.40000000  1
  Al  Al8  1  0.03333333  0.23333333  0.60000000  1
  Na  Na9  1  0.03333333  0.23333333  0.80000000  1
  Al  Al10  1  0.03333333  0.43333333  0.00000000  1
  Na  Na11  1  0.03333333  0.43333333  0.20000000  1
  Al  Al12  1  0.03333333  0.43333333  0.40000000  1
  Na  Na13  1  0.03333333  0.43333333  0.60000000  1
  Al  Al14  1  0.03333333  0.43333333  0.80000000  1
  Na  Na15  1  0.03333333  0.63333333  0.00000000  1
  Al  Al16  1  0.03333333  0.63333333  0.20000000  1
  Na  Na17  1  0.03333333  0.63333333  0.40000000  1
  Al  Al18  1  0.03333333  0.63333333  0.60000000  1
  Na  Na19  1  0.03333333  0.63333333  0.80000000  1
  Al  Al20  1  0.03333333  0.83333333  0.00000000  1
  Na  Na21  1  0.03333333  0.83333333  0.20000000  1
  Al  Al22  1  0.03333333  0.83333333  0.40000000  1
  Na  Na23  1  0.03333333  0.83333333  0.60000000  1
  Al  Al24  1  0.03333333  0.83333333  0.80000000  1
  Na  Na25  1  0.23333333  0.03333333  0.00000000  1
  Al  Al26  1  0.23333333  0.03333333  0.20000000  1
  Na  Na27  1  0.23333333  0.03333333  0.40000000  1
  Al  Al28  1  0.23333333  0.03333333  0.60000000  1
  Na  Na29  1  0.23333333  0.03333333  0.80000000  1
  Al  Al30  1  0.23333333  0.23333333  0.00000000  1
  Na  Na31  1  0.23333333  0.23333333  0.20000000  1
  Al  Al32  1  0.23333333  0.23333333  0.40000000  1
  Na  Na33  1  0.23333333  0.23333333  0.60000000  1
  Al  Al34  1  0.23333333  0.23333333  0.80000000  1
  Na  Na35  1  0.23333333  0.43333333  0.00000000  1
  Al  Al36  1  0.23333333  0.43333333  0.20000000  1
  Na  Na37  1  0.23333333  0.43333333  0.40000000  1
  Al  Al38  1  0.23333333  0.43333333  0.60000000  1
  Na  Na39  1  0.23333333  0.43333333  0.80000000  1
  Al  Al40  1  0.23333333  0.63333333  0.00000000  1
  Na  Na41  1  0.23333333  0.63333333  0.20000000  1
  Al  Al42  1  0.23333333  0.63333333  0.40000000  1
  Na  Na43  1  0.23333333  0.63333333  0.60000000  1
  Al  Al44  1  0.23333333  0.63333333  0.80000000  1
  Na  Na45  1  0.23333333  0.83333333  0.00000000  1
  Al  Al46  1  0.23333333  0.83333333  0.20000000  1
  Na  Na47  1  0.23333333  0.83333333  0.40000000  1
  Al  Al48  1  0.23333333  0.83333333  0.60000000  1
  Na  Na49  1  0.23333333  0.83333333  0.80000000  1
  Al  Al50  1  0.43333333  0.03333333  0.00000000  1
  Na  Na51  1  0.43333333  0.03333333  0.20000000  1
  Al  Al52  1  0.43333333  0.03333333  0.40000000  1
  Na  Na53  1  0.43333333  0.03333333  0.60000000  1
  Al  Al54  1  0.43333333  0.03333333  0.80000000  1
  Na  Na55  1  0.43333333  0.23333333  0.00000000  1
  Al  Al56  1  0.43333333  0.23333333  0.20000000  1
  Na  Na57  1  0.43333333  0.23333333  0.40000000  1
  Al  Al58  1  0.43333333  0.23333333  0.60000000  1
  Na  Na59  1  0.43333333  0.23333333  0.80000000  1
  Al  Al60  1  0.43333333  0.43333333  0.00000000  1
  Na  Na61  1  0.43333333  0.43333333  0.20000000  1
  Al  Al62  1  0.43333333  0.43333333  0.40000000  1
  Na  Na63  1  0.43333333  0.43333333  0.60000000  1
  Al  Al64  1  0.43333333  0.43333333  0.80000000  1
  Na  Na65  1  0.43333333  0.63333333  0.00000000  1
  Al  Al66  1  0.43333333  0.63333333  0.20000000  1
  Na  Na67  1  0.43333333  0.63333333  0.40000000  1
  Al  Al68  1  0.43333333  0.63333333  0.60000000  1
  Na  Na69  1  0.43333333  0.63333333  0.80000000  1
  Al  Al70  1  0.43333333  0.83333333  0.00000000  1
  Na  Na71  1  0.43333333  0.83333333  0.20000000  1
  Al  Al72  1  0.43333333  0.83333333  0.40000000  1
  Na  Na73  1  0.43333333  0.83333333  0.60000000  1
  Al  Al74  1  0.43333333  0.83333333  0.80000000  1
  Na  Na75  1  0.63333333  0.03333333  0.00000000  1
  Al  Al76  1  0.63333333  0.03333333  0.20000000  1
  Na  Na77  1  0.63333333  0.03333333  0.40000000  1
  Al  Al78  1  0.63333333  0.03333333  0.60000000  1
  Na  Na79  1  0.63333333  0.03333333  0.80000000  1
  Al  Al80  1  0.63333333  0.23333333  0.00000000  1
  Na  Na81  1  0.63333333  0.23333333  0.20000000  1
  Al  Al82  1  0.63333333  0.23333333  0.40000000  1
  Na  Na83  1  0.63333333  0.23333333  0.60000000  1
  Al  Al84  1  0.63333333  0.23333333  0.80000000  1
  Na  Na85  1  0.63333333  0.43333333  0.00000000  1
  Al  Al86  1  0.63333333  0.43333333  0.20000000  1
  Na  Na87  1  0.63333333  0.43333333  0.40000000  1
  Al  Al88  1  0.63333333  0.43333333  0.60000000  1
  Na  Na89  1  0.63333333  0.43333333  0.80000000  1
  Al  Al90  1  0.63333333  0.63333333  0.00000000  1
  Na  Na91  1  0.63333333  0.63333333  0.20000000  1
  Al  Al92  1  0.63333333  0.63333333  0.40000000  1
  Na  Na93  1  0.63333333  0.63333333  0.60000000  1
  Al  Al94  1  0.63333333  0.63333333  0.80000000  1
  Na  Na95  1  0.63333333  0.83333333  0.00000000  1
  Al  Al96  1  0.63333333  0.83333333  0.20000000  1
  Na  Na97  1  0.63333333  0.83333333  0.40000000  1
  Al  Al98  1  0.63333333  0.83333333  0.60000000  1
  Na  Na99  1  0.63333333  0.83333333  0.80000000  1
  Al  Al100  1  0.83333333  0.03333333  0.00000000  1
  Na  Na101  1  0.83333333  0.03333333  0.20000000  1
  Al  Al102  1  0.83333333  0.03333333  0.40000000  1
  Na  Na103  1  0.83333333  0.03333333  0.60000000  1
  Al  Al104  1  0.83333333  0.03333333  0.80000000  1
  Na  Na105  1  0.83333333  0.23333333  0.00000000  1
  Al  Al106  1  0.83333333  0.23333333  0.20000000  1
  Na  Na107  1  0.83333333  0.23333333  0.40000000  1
  Al  Al108  1  0.83333333  0.23333333  0.60000000  1
  Na  Na109  1  0.83333333  0.23333333  0.80000000  1
  Al  Al110  1  0.83333333  0.43333333  0.00000000  1
  Na  Na111  1  0.83333333  0.43333333  0.20000000  1
  Al  Al112  1  0.83333333  0.43333333  0.40000000  1
  Na  Na113  1  0.83333333  0.43333333  0.60000000  1
  Al  Al114  1  0.83333333  0.43333333  0.80000000  1
  Na  Na115  1  0.83333333  0.63333333  0.00000000  1
  Al  Al116  1  0.83333333  0.63333333  0.20000000  1
  Na  Na117  1  0.83333333  0.63333333  0.40000000  1
  Al  Al118  1  0.83333333  0.63333333  0.60000000  1
  Na  Na119  1  0.83333333  0.63333333  0.80000000  1
  Al  Al120  1  0.83333333  0.83333333  0.00000000  1
  Na  Na121  1  0.83333333  0.83333333  0.20000000  1
  Al  Al122  1  0.83333333  0.83333333  0.40000000  1
  Na  Na123  1  0.83333333  0.83333333  0.60000000  1
  Al  Al124  1  0.83333333  0.83333333  0.80000000  1
  Na  Na125  1  0.03333333  0.03333333  0.06666667  1
  Na  Na126  1  0.03333333  0.03333333  0.26666667  1
  Na  Na127  1  0.03333333  0.03333333  0.46666667  1
  Na  Na128  1  0.03333333  0.03333333  0.66666667  1
  Na  Na129  1  0.03333333  0.03333333  0.86666667  1
  Na  Na130  1  0.03333333  0.23333333  0.06666667  1
  Na  Na131  1  0.03333333  0.23333333  0.26666667  1
  Na  Na132  1  0.03333333  0.23333333  0.46666667  1
  Na  Na133  1  0.03333333  0.23333333  0.66666667  1
  Na  Na134  1  0.03333333  0.23333333  0.86666667  1
  Na  Na135  1  0.03333333  0.43333333  0.06666667  1
  Na  Na136  1  0.03333333  0.43333333  0.26666667  1
  Na  Na137  1  0.03333333  0.43333333  0.46666667  1
  Na  Na138  1  0.03333333  0.43333333  0.66666667  1
  Na  Na139  1  0.03333333  0.43333333  0.86666667  1
  Na  Na140  1  0.03333333  0.63333333  0.06666667  1
  Na  Na141  1  0.03333333  0.63333333  0.46666667  1
  Na  Na142  1  0.03333333  0.63333333  0.66666667  1
  Na  Na143  1  0.03333333  0.63333333  0.86666667  1
  Na  Na144  1  0.03333333  0.83333333  0.06666667  1
  Na  Na145  1  0.03333333  0.83333333  0.26666667  1
  Na  Na146  1  0.03333333  0.83333333  0.46666667  1
  Na  Na147  1  0.03333333  0.83333333  0.66666667  1
  Na  Na148  1  0.03333333  0.83333333  0.86666667  1
  Na  Na149  1  0.23333333  0.03333333  0.06666667  1
  Na  Na150  1  0.23333333  0.03333333  0.26666667  1
  Na  Na151  1  0.23333333  0.03333333  0.46666667  1
  Na  Na152  1  0.23333333  0.03333333  0.66666667  1
  Na  Na153  1  0.23333333  0.03333333  0.86666667  1
  Na  Na154  1  0.23333333  0.23333333  0.06666667  1
  Na  Na155  1  0.23333333  0.23333333  0.26666667  1
  Na  Na156  1  0.23333333  0.23333333  0.46666667  1
  Na  Na157  1  0.23333333  0.23333333  0.66666667  1
  Na  Na158  1  0.23333333  0.23333333  0.86666667  1
  Na  Na159  1  0.23333333  0.43333333  0.06666667  1
  Na  Na160  1  0.23333333  0.43333333  0.26666667  1
  Na  Na161  1  0.23333333  0.43333333  0.46666667  1
  Na  Na162  1  0.23333333  0.43333333  0.66666667  1
  Na  Na163  1  0.23333333  0.43333333  0.86666667  1
  Na  Na164  1  0.23333333  0.63333333  0.06666667  1
  Na  Na165  1  0.23333333  0.63333333  0.26666667  1
  Na  Na166  1  0.23333333  0.63333333  0.46666667  1
  Na  Na167  1  0.23333333  0.63333333  0.66666667  1
  Na  Na168  1  0.23333333  0.63333333  0.86666667  1
  Na  Na169  1  0.23333333  0.83333333  0.06666667  1
  Na  Na170  1  0.23333333  0.83333333  0.26666667  1
  Na  Na171  1  0.23333333  0.83333333  0.46666667  1
  Na  Na172  1  0.23333333  0.83333333  0.66666667  1
  Na  Na173  1  0.23333333  0.83333333  0.86666667  1
  Na  Na174  1  0.43333333  0.03333333  0.06666667  1
  Na  Na175  1  0.43333333  0.03333333  0.26666667  1
  Na  Na176  1  0.43333333  0.03333333  0.46666667  1
  Na  Na177  1  0.43333333  0.03333333  0.66666667  1
  Na  Na178  1  0.43333333  0.03333333  0.86666667  1
  Na  Na179  1  0.43333333  0.23333333  0.06666667  1
  Na  Na180  1  0.43333333  0.23333333  0.26666667  1
  Na  Na181  1  0.43333333  0.23333333  0.46666667  1
  Na  Na182  1  0.43333333  0.23333333  0.66666667  1
  Na  Na183  1  0.43333333  0.23333333  0.86666667  1
  Na  Na184  1  0.43333333  0.43333333  0.06666667  1
  Na  Na185  1  0.43333333  0.43333333  0.26666667  1
  Na  Na186  1  0.43333333  0.43333333  0.46666667  1
  Na  Na187  1  0.43333333  0.43333333  0.66666667  1
  Na  Na188  1  0.43333333  0.43333333  0.86666667  1
  Na  Na189  1  0.43333333  0.63333333  0.06666667  1
  Na  Na190  1  0.43333333  0.63333333  0.26666667  1
  Na  Na191  1  0.43333333  0.63333333  0.46666667  1
  Na  Na192  1  0.43333333  0.63333333  0.66666667  1
  Na  Na193  1  0.43333333  0.63333333  0.86666667  1
  Na  Na194  1  0.43333333  0.83333333  0.06666667  1
  Na  Na195  1  0.43333333  0.83333333  0.26666667  1
  Na  Na196  1  0.43333333  0.83333333  0.66666667  1
  Na  Na197  1  0.43333333  0.83333333  0.86666667  1
  Na  Na198  1  0.63333333  0.03333333  0.06666667  1
  Na  Na199  1  0.63333333  0.03333333  0.26666667  1
  Na  Na200  1  0.63333333  0.03333333  0.66666667  1
  Na  Na201  1  0.63333333  0.03333333  0.86666667  1
  Na  Na202  1  0.63333333  0.23333333  0.06666667  1
  Na  Na203  1  0.63333333  0.23333333  0.26666667  1
  Na  Na204  1  0.63333333  0.23333333  0.46666667  1
  Na  Na205  1  0.63333333  0.23333333  0.66666667  1
  Na  Na206  1  0.63333333  0.23333333  0.86666667  1
  Na  Na207  1  0.63333333  0.43333333  0.06666667  1
  Na  Na208  1  0.63333333  0.43333333  0.26666667  1
  Na  Na209  1  0.63333333  0.43333333  0.46666667  1
  Na  Na210  1  0.63333333  0.43333333  0.66666667  1
  Na  Na211  1  0.63333333  0.43333333  0.86666667  1
  Na  Na212  1  0.63333333  0.63333333  0.06666667  1
  Na  Na213  1  0.63333333  0.63333333  0.26666667  1
  Na  Na214  1  0.63333333  0.63333333  0.46666667  1
  Na  Na215  1  0.63333333  0.63333333  0.66666667  1
  Na  Na216  1  0.63333333  0.63333333  0.86666667  1
  Na  Na217  1  0.63333333  0.83333333  0.06666667  1
  Na  Na218  1  0.63333333  0.83333333  0.26666667  1
  Na  Na219  1  0.63333333  0.83333333  0.46666667  1
  Na  Na220  1  0.63333333  0.83333333  0.66666667  1
  Na  Na221  1  0.63333333  0.83333333  0.86666667  1
  Na  Na222  1  0.83333333  0.03333333  0.06666667  1
  Na  Na223  1  0.83333333  0.03333333  0.26666667  1
  Na  Na224  1  0.83333333  0.03333333  0.46666667  1
  Na  Na225  1  0.83333333  0.03333333  0.66666667  1
  Na  Na226  1  0.83333333  0.03333333  0.86666667  1
  Na  Na227  1  0.83333333  0.23333333  0.06666667  1
  Na  Na228  1  0.83333333  0.23333333  0.26666667  1
  Na  Na229  1  0.83333333  0.23333333  0.46666667  1
  Na  Na230  1  0.83333333  0.23333333  0.66666667  1
  Na  Na231  1  0.83333333  0.23333333  0.86666667  1
  Na  Na232  1  0.83333333  0.43333333  0.06666667  1
  Na  Na233  1  0.83333333  0.43333333  0.26666667  1
  Na  Na234  1  0.83333333  0.43333333  0.46666667  1
  Na  Na235  1  0.83333333  0.43333333  0.66666667  1
  Na  Na236  1  0.83333333  0.43333333  0.86666667  1
  Na  Na237  1  0.83333333  0.63333333  0.06666667  1
  Na  Na238  1  0.83333333  0.63333333  0.26666667  1
  Na  Na239  1  0.83333333  0.63333333  0.46666667  1
  Na  Na240  1  0.83333333  0.63333333  0.66666667  1
  Na  Na241  1  0.83333333  0.63333333  0.86666667  1
  Na  Na242  1  0.83333333  0.83333333  0.06666667  1
  Na  Na243  1  0.83333333  0.83333333  0.26666667  1
  Na  Na244  1  0.83333333  0.83333333  0.46666667  1
  Na  Na245  1  0.83333333  0.83333333  0.66666667  1
  Na  Na246  1  0.83333333  0.83333333  0.86666667  1
  Na  Na247  1  0.03333333  0.03333333  0.13333333  1
  Na  Na248  1  0.03333333  0.03333333  0.33333333  1
  Na  Na249  1  0.03333333  0.03333333  0.53333333  1
  Na  Na250  1  0.03333333  0.03333333  0.73333333  1
  Na  Na251  1  0.03333333  0.03333333  0.93333333  1
  Na  Na252  1  0.03333333  0.23333333  0.13333333  1
  Na  Na253  1  0.03333333  0.23333333  0.33333333  1
  Na  Na254  1  0.03333333  0.23333333  0.53333333  1
  Na  Na255  1  0.03333333  0.23333333  0.73333333  1
  Na  Na256  1  0.03333333  0.23333333  0.93333333  1
  Na  Na257  1  0.03333333  0.43333333  0.13333333  1
  Na  Na258  1  0.03333333  0.43333333  0.33333333  1
  Na  Na259  1  0.03333333  0.43333333  0.53333333  1
  Na  Na260  1  0.03333333  0.43333333  0.73333333  1
  Na  Na261  1  0.03333333  0.43333333  0.93333333  1
  Na  Na262  1  0.03333333  0.63333333  0.13333333  1
  Na  Na263  1  0.03333333  0.63333333  0.33333333  1
  Na  Na264  1  0.03333333  0.63333333  0.53333333  1
  Na  Na265  1  0.03333333  0.63333333  0.73333333  1
  Na  Na266  1  0.03333333  0.63333333  0.93333333  1
  Na  Na267  1  0.03333333  0.83333333  0.13333333  1
  Na  Na268  1  0.03333333  0.83333333  0.33333333  1
  Na  Na269  1  0.03333333  0.83333333  0.53333333  1
  Na  Na270  1  0.03333333  0.83333333  0.73333333  1
  Na  Na271  1  0.03333333  0.83333333  0.93333333  1
  Na  Na272  1  0.23333333  0.03333333  0.13333333  1
  Na  Na273  1  0.23333333  0.03333333  0.33333333  1
  Na  Na274  1  0.23333333  0.03333333  0.53333333  1
  Na  Na275  1  0.23333333  0.03333333  0.73333333  1
  Na  Na276  1  0.23333333  0.03333333  0.93333333  1
  Na  Na277  1  0.23333333  0.23333333  0.13333333  1
  Na  Na278  1  0.23333333  0.23333333  0.33333333  1
  Na  Na279  1  0.23333333  0.23333333  0.53333333  1
  Na  Na280  1  0.23333333  0.23333333  0.73333333  1
  Na  Na281  1  0.23333333  0.23333333  0.93333333  1
  Na  Na282  1  0.23333333  0.43333333  0.13333333  1
  Na  Na283  1  0.23333333  0.43333333  0.33333333  1
  Na  Na284  1  0.23333333  0.43333333  0.53333333  1
  Na  Na285  1  0.23333333  0.43333333  0.73333333  1
  Na  Na286  1  0.23333333  0.43333333  0.93333333  1
  Na  Na287  1  0.23333333  0.63333333  0.13333333  1
  Na  Na288  1  0.23333333  0.63333333  0.33333333  1
  Na  Na289  1  0.23333333  0.63333333  0.53333333  1
  Na  Na290  1  0.23333333  0.63333333  0.73333333  1
  Na  Na291  1  0.23333333  0.63333333  0.93333333  1
  Na  Na292  1  0.23333333  0.83333333  0.13333333  1
  Na  Na293  1  0.23333333  0.83333333  0.33333333  1
  Na  Na294  1  0.23333333  0.83333333  0.53333333  1
  Na  Na295  1  0.23333333  0.83333333  0.73333333  1
  Na  Na296  1  0.23333333  0.83333333  0.93333333  1
  Na  Na297  1  0.43333333  0.03333333  0.13333333  1
  Na  Na298  1  0.43333333  0.03333333  0.33333333  1
  Na  Na299  1  0.43333333  0.03333333  0.53333333  1
  Na  Na300  1  0.43333333  0.03333333  0.73333333  1
  Na  Na301  1  0.43333333  0.03333333  0.93333333  1
  Na  Na302  1  0.43333333  0.23333333  0.13333333  1
  Na  Na303  1  0.43333333  0.23333333  0.33333333  1
  Na  Na304  1  0.43333333  0.23333333  0.53333333  1
  Na  Na305  1  0.43333333  0.23333333  0.73333333  1
  Na  Na306  1  0.43333333  0.23333333  0.93333333  1
  Na  Na307  1  0.43333333  0.43333333  0.13333333  1
  Na  Na308  1  0.43333333  0.43333333  0.33333333  1
  Na  Na309  1  0.43333333  0.43333333  0.53333333  1
  Na  Na310  1  0.43333333  0.43333333  0.73333333  1
  Na  Na311  1  0.43333333  0.43333333  0.93333333  1
  Na  Na312  1  0.43333333  0.63333333  0.13333333  1
  Na  Na313  1  0.43333333  0.63333333  0.33333333  1
  Na  Na314  1  0.43333333  0.63333333  0.53333333  1
  Na  Na315  1  0.43333333  0.63333333  0.73333333  1
  Na  Na316  1  0.43333333  0.63333333  0.93333333  1
  Na  Na317  1  0.43333333  0.83333333  0.13333333  1
  Na  Na318  1  0.43333333  0.83333333  0.33333333  1
  Na  Na319  1  0.43333333  0.83333333  0.53333333  1
  Na  Na320  1  0.43333333  0.83333333  0.73333333  1
  Na  Na321  1  0.43333333  0.83333333  0.93333333  1
  Na  Na322  1  0.63333333  0.03333333  0.13333333  1
  Na  Na323  1  0.63333333  0.03333333  0.33333333  1
  Na  Na324  1  0.63333333  0.03333333  0.53333333  1
  Na  Na325  1  0.63333333  0.03333333  0.73333333  1
  Na  Na326  1  0.63333333  0.03333333  0.93333333  1
  Na  Na327  1  0.63333333  0.23333333  0.13333333  1
  Na  Na328  1  0.63333333  0.23333333  0.33333333  1
  Na  Na329  1  0.63333333  0.23333333  0.53333333  1
  Na  Na330  1  0.63333333  0.23333333  0.73333333  1
  Na  Na331  1  0.63333333  0.23333333  0.93333333  1
  Na  Na332  1  0.63333333  0.43333333  0.13333333  1
  Na  Na333  1  0.63333333  0.43333333  0.33333333  1
  Na  Na334  1  0.63333333  0.43333333  0.53333333  1
  Na  Na335  1  0.63333333  0.43333333  0.73333333  1
  Na  Na336  1  0.63333333  0.43333333  0.93333333  1
  Na  Na337  1  0.63333333  0.63333333  0.13333333  1
  Na  Na338  1  0.63333333  0.63333333  0.33333333  1
  Na  Na339  1  0.63333333  0.63333333  0.53333333  1
  Na  Na340  1  0.63333333  0.63333333  0.73333333  1
  Na  Na341  1  0.63333333  0.63333333  0.93333333  1
  Na  Na342  1  0.63333333  0.83333333  0.13333333  1
  Na  Na343  1  0.63333333  0.83333333  0.33333333  1
  Na  Na344  1  0.63333333  0.83333333  0.53333333  1
  Na  Na345  1  0.63333333  0.83333333  0.73333333  1
  Na  Na346  1  0.63333333  0.83333333  0.93333333  1
  Na  Na347  1  0.83333333  0.03333333  0.13333333  1
  Na  Na348  1  0.83333333  0.03333333  0.33333333  1
  Na  Na349  1  0.83333333  0.03333333  0.53333333  1
  Na  Na350  1  0.83333333  0.03333333  0.73333333  1
  Na  Na351  1  0.83333333  0.03333333  0.93333333  1
  Na  Na352  1  0.83333333  0.23333333  0.13333333  1
  Na  Na353  1  0.83333333  0.23333333  0.33333333  1
  Na  Na354  1  0.83333333  0.23333333  0.53333333  1
  Na  Na355  1  0.83333333  0.23333333  0.73333333  1
  Na  Na356  1  0.83333333  0.23333333  0.93333333  1
  Na  Na357  1  0.83333333  0.43333333  0.13333333  1
  Na  Na358  1  0.83333333  0.43333333  0.33333333  1
  Na  Na359  1  0.83333333  0.43333333  0.53333333  1
  Na  Na360  1  0.83333333  0.43333333  0.73333333  1
  Na  Na361  1  0.83333333  0.43333333  0.93333333  1
  Na  Na362  1  0.83333333  0.63333333  0.13333333  1
  Na  Na363  1  0.83333333  0.63333333  0.33333333  1
  Na  Na364  1  0.83333333  0.63333333  0.53333333  1
  Na  Na365  1  0.83333333  0.63333333  0.73333333  1
  Na  Na366  1  0.83333333  0.63333333  0.93333333  1
  Na  Na367  1  0.83333333  0.83333333  0.13333333  1
  Na  Na368  1  0.83333333  0.83333333  0.33333333  1
  Na  Na369  1  0.83333333  0.83333333  0.53333333  1
  Na  Na370  1  0.83333333  0.83333333  0.73333333  1
  Na  Na371  1  0.83333333  0.83333333  0.93333333  1
  Na  Na372  1  0.03333333  0.10000000  0.00000000  1
  Na  Na373  1  0.03333333  0.10000000  0.20000000  1
  Na  Na374  1  0.03333333  0.10000000  0.40000000  1
  Na  Na375  1  0.03333333  0.10000000  0.60000000  1
  Na  Na376  1  0.03333333  0.10000000  0.80000000  1
  Na  Na377  1  0.03333333  0.30000000  0.00000000  1
  Na  Na378  1  0.03333333  0.30000000  0.20000000  1
  Na  Na379  1  0.03333333  0.30000000  0.40000000  1
  Na  Na380  1  0.03333333  0.30000000  0.60000000  1
  Na  Na381  1  0.03333333  0.30000000  0.80000000  1
  Na  Na382  1  0.03333333  0.50000000  0.00000000  1
  Na  Na383  1  0.03333333  0.50000000  0.20000000  1
  Na  Na384  1  0.03333333  0.50000000  0.40000000  1
  Na  Na385  1  0.03333333  0.50000000  0.60000000  1
  Na  Na386  1  0.03333333  0.50000000  0.80000000  1
  Na  Na387  1  0.03333333  0.70000000  0.00000000  1
  Na  Na388  1  0.03333333  0.70000000  0.20000000  1
  Na  Na389  1  0.03333333  0.70000000  0.40000000  1
  Na  Na390  1  0.03333333  0.70000000  0.60000000  1
  Na  Na391  1  0.03333333  0.70000000  0.80000000  1
  Na  Na392  1  0.03333333  0.90000000  0.00000000  1
  Na  Na393  1  0.03333333  0.90000000  0.20000000  1
  Na  Na394  1  0.03333333  0.90000000  0.40000000  1
  Na  Na395  1  0.03333333  0.90000000  0.60000000  1
  Na  Na396  1  0.03333333  0.90000000  0.80000000  1
  Na  Na397  1  0.23333333  0.10000000  0.00000000  1
  Na  Na398  1  0.23333333  0.10000000  0.20000000  1
  Na  Na399  1  0.23333333  0.10000000  0.40000000  1
  Na  Na400  1  0.23333333  0.10000000  0.60000000  1
  Na  Na401  1  0.23333333  0.10000000  0.80000000  1
  Na  Na402  1  0.23333333  0.30000000  0.20000000  1
  Na  Na403  1  0.23333333  0.30000000  0.40000000  1
  Na  Na404  1  0.23333333  0.30000000  0.80000000  1
  Na  Na405  1  0.23333333  0.50000000  0.00000000  1
  Na  Na406  1  0.23333333  0.50000000  0.20000000  1
  Na  Na407  1  0.23333333  0.50000000  0.40000000  1
  Na  Na408  1  0.23333333  0.50000000  0.60000000  1
  Na  Na409  1  0.23333333  0.50000000  0.80000000  1
  Na  Na410  1  0.23333333  0.70000000  0.00000000  1
  Na  Na411  1  0.23333333  0.70000000  0.20000000  1
  Na  Na412  1  0.23333333  0.70000000  0.40000000  1
  Na  Na413  1  0.23333333  0.70000000  0.60000000  1
  Na  Na414  1  0.23333333  0.70000000  0.80000000  1
  Na  Na415  1  0.23333333  0.90000000  0.00000000  1
  Na  Na416  1  0.23333333  0.90000000  0.20000000  1
  Na  Na417  1  0.23333333  0.90000000  0.40000000  1
  Na  Na418  1  0.23333333  0.90000000  0.60000000  1
  Na  Na419  1  0.23333333  0.90000000  0.80000000  1
  Na  Na420  1  0.43333333  0.10000000  0.00000000  1
  Na  Na421  1  0.43333333  0.10000000  0.20000000  1
  Na  Na422  1  0.43333333  0.10000000  0.60000000  1
  Na  Na423  1  0.43333333  0.10000000  0.80000000  1
  Na  Na424  1  0.43333333  0.30000000  0.00000000  1
  Na  Na425  1  0.43333333  0.30000000  0.20000000  1
  Na  Na426  1  0.43333333  0.30000000  0.40000000  1
  Na  Na427  1  0.43333333  0.30000000  0.80000000  1
  Na  Na428  1  0.43333333  0.50000000  0.20000000  1
  Na  Na429  1  0.43333333  0.50000000  0.40000000  1
  Na  Na430  1  0.43333333  0.50000000  0.60000000  1
  Na  Na431  1  0.43333333  0.50000000  0.80000000  1
  Na  Na432  1  0.43333333  0.70000000  0.00000000  1
  Na  Na433  1  0.43333333  0.70000000  0.20000000  1
  Na  Na434  1  0.43333333  0.70000000  0.40000000  1
  Na  Na435  1  0.43333333  0.70000000  0.60000000  1
  Na  Na436  1  0.43333333  0.70000000  0.80000000  1
  Na  Na437  1  0.43333333  0.90000000  0.00000000  1
  Na  Na438  1  0.43333333  0.90000000  0.20000000  1
  Na  Na439  1  0.43333333  0.90000000  0.40000000  1
  Na  Na440  1  0.43333333  0.90000000  0.60000000  1
  Na  Na441  1  0.43333333  0.90000000  0.80000000  1
  Na  Na442  1  0.63333333  0.10000000  0.00000000  1
  Na  Na443  1  0.63333333  0.10000000  0.20000000  1
  Na  Na444  1  0.63333333  0.10000000  0.40000000  1
  Na  Na445  1  0.63333333  0.10000000  0.60000000  1
  Na  Na446  1  0.63333333  0.10000000  0.80000000  1
  Na  Na447  1  0.63333333  0.30000000  0.00000000  1
  Na  Na448  1  0.63333333  0.30000000  0.20000000  1
  Na  Na449  1  0.63333333  0.30000000  0.40000000  1
  Na  Na450  1  0.63333333  0.30000000  0.60000000  1
  Na  Na451  1  0.63333333  0.30000000  0.80000000  1
  Na  Na452  1  0.63333333  0.50000000  0.00000000  1
  Na  Na453  1  0.63333333  0.50000000  0.20000000  1
  Na  Na454  1  0.63333333  0.50000000  0.40000000  1
  Na  Na455  1  0.63333333  0.50000000  0.60000000  1
  Na  Na456  1  0.63333333  0.50000000  0.80000000  1
  Na  Na457  1  0.63333333  0.70000000  0.00000000  1
  Na  Na458  1  0.63333333  0.70000000  0.20000000  1
  Na  Na459  1  0.63333333  0.70000000  0.40000000  1
  Na  Na460  1  0.63333333  0.70000000  0.60000000  1
  Na  Na461  1  0.63333333  0.70000000  0.80000000  1
  Na  Na462  1  0.63333333  0.90000000  0.00000000  1
  Na  Na463  1  0.63333333  0.90000000  0.20000000  1
  Na  Na464  1  0.63333333  0.90000000  0.40000000  1
  Na  Na465  1  0.63333333  0.90000000  0.60000000  1
  Na  Na466  1  0.63333333  0.90000000  0.80000000  1
  Na  Na467  1  0.83333333  0.10000000  0.00000000  1
  Na  Na468  1  0.83333333  0.10000000  0.20000000  1
  Na  Na469  1  0.83333333  0.10000000  0.40000000  1
  Na  Na470  1  0.83333333  0.10000000  0.60000000  1
  Na  Na471  1  0.83333333  0.10000000  0.80000000  1
  Na  Na472  1  0.83333333  0.30000000  0.00000000  1
  Na  Na473  1  0.83333333  0.30000000  0.20000000  1
  Na  Na474  1  0.83333333  0.30000000  0.40000000  1
  Na  Na475  1  0.83333333  0.30000000  0.60000000  1
  Na  Na476  1  0.83333333  0.30000000  0.80000000  1
  Na  Na477  1  0.83333333  0.50000000  0.00000000  1
  Na  Na478  1  0.83333333  0.50000000  0.20000000  1
  Na  Na479  1  0.83333333  0.50000000  0.40000000  1
  Na  Na480  1  0.83333333  0.50000000  0.60000000  1
  Na  Na481  1  0.83333333  0.50000000  0.80000000  1
  Na  Na482  1  0.83333333  0.70000000  0.00000000  1
  Na  Na483  1  0.83333333  0.70000000  0.20000000  1
  Na  Na484  1  0.83333333  0.70000000  0.40000000  1
  Na  Na485  1  0.83333333  0.70000000  0.60000000  1
  Na  Na486  1  0.83333333  0.70000000  0.80000000  1
  Na  Na487  1  0.83333333  0.90000000  0.00000000  1
  Na  Na488  1  0.83333333  0.90000000  0.20000000  1
  Na  Na489  1  0.83333333  0.90000000  0.40000000  1
  Na  Na490  1  0.83333333  0.90000000  0.60000000  1
  Na  Na491  1  0.83333333  0.90000000  0.80000000  1
  Na  Na492  1  0.03333333  0.10000000  0.06666667  1
  Na  Na493  1  0.03333333  0.10000000  0.26666667  1
  Na  Na494  1  0.03333333  0.10000000  0.46666667  1
  Na  Na495  1  0.03333333  0.10000000  0.66666667  1
  Na  Na496  1  0.03333333  0.10000000  0.86666667  1
  Na  Na497  1  0.03333333  0.30000000  0.06666667  1
  Na  Na498  1  0.03333333  0.30000000  0.26666667  1
  Na  Na499  1  0.03333333  0.30000000  0.46666667  1
  Na  Na500  1  0.03333333  0.30000000  0.66666667  1
  Na  Na501  1  0.03333333  0.30000000  0.86666667  1
  Na  Na502  1  0.03333333  0.50000000  0.06666667  1
  Na  Na503  1  0.03333333  0.50000000  0.26666667  1
  Na  Na504  1  0.03333333  0.50000000  0.46666667  1
  Na  Na505  1  0.03333333  0.50000000  0.66666667  1
  Na  Na506  1  0.03333333  0.50000000  0.86666667  1
  Na  Na507  1  0.03333333  0.70000000  0.06666667  1
  Na  Na508  1  0.03333333  0.70000000  0.46666667  1
  Na  Na509  1  0.03333333  0.70000000  0.66666667  1
  Na  Na510  1  0.03333333  0.70000000  0.86666667  1
  Na  Na511  1  0.03333333  0.90000000  0.06666667  1
  Na  Na512  1  0.03333333  0.90000000  0.26666667  1
  Na  Na513  1  0.03333333  0.90000000  0.46666667  1
  Na  Na514  1  0.03333333  0.90000000  0.66666667  1
  Na  Na515  1  0.03333333  0.90000000  0.86666667  1
  Na  Na516  1  0.23333333  0.10000000  0.06666667  1
  Na  Na517  1  0.23333333  0.10000000  0.26666667  1
  Na  Na518  1  0.23333333  0.10000000  0.46666667  1
  Na  Na519  1  0.23333333  0.10000000  0.66666667  1
  Na  Na520  1  0.23333333  0.10000000  0.86666667  1
  Na  Na521  1  0.23333333  0.30000000  0.06666667  1
  Na  Na522  1  0.23333333  0.30000000  0.26666667  1
  Na  Na523  1  0.23333333  0.30000000  0.46666667  1
  Na  Na524  1  0.23333333  0.30000000  0.66666667  1
  Na  Na525  1  0.23333333  0.30000000  0.86666667  1
  Na  Na526  1  0.23333333  0.50000000  0.06666667  1
  Na  Na527  1  0.23333333  0.50000000  0.26666667  1
  Na  Na528  1  0.23333333  0.50000000  0.46666667  1
  Na  Na529  1  0.23333333  0.50000000  0.66666667  1
  Na  Na530  1  0.23333333  0.50000000  0.86666667  1
  Na  Na531  1  0.23333333  0.70000000  0.06666667  1
  Na  Na532  1  0.23333333  0.70000000  0.26666667  1
  Na  Na533  1  0.23333333  0.70000000  0.46666667  1
  Na  Na534  1  0.23333333  0.70000000  0.66666667  1
  Na  Na535  1  0.23333333  0.70000000  0.86666667  1
  Na  Na536  1  0.23333333  0.90000000  0.06666667  1
  Na  Na537  1  0.23333333  0.90000000  0.26666667  1
  Na  Na538  1  0.23333333  0.90000000  0.46666667  1
  Na  Na539  1  0.23333333  0.90000000  0.66666667  1
  Na  Na540  1  0.23333333  0.90000000  0.86666667  1
  Na  Na541  1  0.43333333  0.10000000  0.06666667  1
  Na  Na542  1  0.43333333  0.10000000  0.26666667  1
  Na  Na543  1  0.43333333  0.10000000  0.46666667  1
  Na  Na544  1  0.43333333  0.10000000  0.66666667  1
  Na  Na545  1  0.43333333  0.10000000  0.86666667  1
  Na  Na546  1  0.43333333  0.30000000  0.06666667  1
  Na  Na547  1  0.43333333  0.30000000  0.26666667  1
  Na  Na548  1  0.43333333  0.30000000  0.46666667  1
  Na  Na549  1  0.43333333  0.30000000  0.66666667  1
  Na  Na550  1  0.43333333  0.30000000  0.86666667  1
  Na  Na551  1  0.43333333  0.50000000  0.06666667  1
  Na  Na552  1  0.43333333  0.50000000  0.26666667  1
  Na  Na553  1  0.43333333  0.50000000  0.46666667  1
  Na  Na554  1  0.43333333  0.50000000  0.66666667  1
  Na  Na555  1  0.43333333  0.50000000  0.86666667  1
  Na  Na556  1  0.43333333  0.70000000  0.06666667  1
  Na  Na557  1  0.43333333  0.70000000  0.26666667  1
  Na  Na558  1  0.43333333  0.70000000  0.46666667  1
  Na  Na559  1  0.43333333  0.70000000  0.66666667  1
  Na  Na560  1  0.43333333  0.70000000  0.86666667  1
  Na  Na561  1  0.43333333  0.90000000  0.06666667  1
  Na  Na562  1  0.43333333  0.90000000  0.26666667  1
  Na  Na563  1  0.43333333  0.90000000  0.46666667  1
  Na  Na564  1  0.43333333  0.90000000  0.66666667  1
  Na  Na565  1  0.43333333  0.90000000  0.86666667  1
  Na  Na566  1  0.63333333  0.10000000  0.06666667  1
  Na  Na567  1  0.63333333  0.10000000  0.26666667  1
  Na  Na568  1  0.63333333  0.10000000  0.46666667  1
  Na  Na569  1  0.63333333  0.10000000  0.66666667  1
  Na  Na570  1  0.63333333  0.10000000  0.86666667  1
  Na  Na571  1  0.63333333  0.30000000  0.06666667  1
  Na  Na572  1  0.63333333  0.30000000  0.26666667  1
  Na  Na573  1  0.63333333  0.30000000  0.46666667  1
  Na  Na574  1  0.63333333  0.30000000  0.66666667  1
  Na  Na575  1  0.63333333  0.30000000  0.86666667  1
  Na  Na576  1  0.63333333  0.50000000  0.06666667  1
  Na  Na577  1  0.63333333  0.50000000  0.26666667  1
  Na  Na578  1  0.63333333  0.50000000  0.46666667  1
  Na  Na579  1  0.63333333  0.50000000  0.66666667  1
  Na  Na580  1  0.63333333  0.50000000  0.86666667  1
  Na  Na581  1  0.63333333  0.70000000  0.26666667  1
  Na  Na582  1  0.63333333  0.70000000  0.46666667  1
  Na  Na583  1  0.63333333  0.70000000  0.66666667  1
  Na  Na584  1  0.63333333  0.70000000  0.86666667  1
  Na  Na585  1  0.63333333  0.90000000  0.06666667  1
  Na  Na586  1  0.63333333  0.90000000  0.26666667  1
  Na  Na587  1  0.63333333  0.90000000  0.46666667  1
  Na  Na588  1  0.63333333  0.90000000  0.66666667  1
  Na  Na589  1  0.63333333  0.90000000  0.86666667  1
  Na  Na590  1  0.83333333  0.10000000  0.06666667  1
  Na  Na591  1  0.83333333  0.10000000  0.26666667  1
  Na  Na592  1  0.83333333  0.10000000  0.46666667  1
  Na  Na593  1  0.83333333  0.10000000  0.66666667  1
  Na  Na594  1  0.83333333  0.10000000  0.86666667  1
  Na  Na595  1  0.83333333  0.30000000  0.06666667  1
  Na  Na596  1  0.83333333  0.30000000  0.26666667  1
  Na  Na597  1  0.83333333  0.30000000  0.46666667  1
  Na  Na598  1  0.83333333  0.30000000  0.66666667  1
  Na  Na599  1  0.83333333  0.30000000  0.86666667  1
  Na  Na600  1  0.83333333  0.50000000  0.06666667  1
  Na  Na601  1  0.83333333  0.50000000  0.26666667  1
  Na  Na602  1  0.83333333  0.50000000  0.46666667  1
  Na  Na603  1  0.83333333  0.50000000  0.66666667  1
  Na  Na604  1  0.83333333  0.50000000  0.86666667  1
  Na  Na605  1  0.83333333  0.70000000  0.06666667  1
  Na  Na606  1  0.83333333  0.70000000  0.26666667  1
  Na  Na607  1  0.83333333  0.70000000  0.46666667  1
  Na  Na608  1  0.83333333  0.70000000  0.86666667  1
  Na  Na609  1  0.83333333  0.90000000  0.06666667  1
  Na  Na610  1  0.83333333  0.90000000  0.26666667  1
  Na  Na611  1  0.83333333  0.90000000  0.46666667  1
  Na  Na612  1  0.83333333  0.90000000  0.66666667  1
  Na  Na613  1  0.83333333  0.90000000  0.86666667  1
  Na  Na614  1  0.03333333  0.10000000  0.13333333  1
  Na  Na615  1  0.03333333  0.10000000  0.33333333  1
  Na  Na616  1  0.03333333  0.10000000  0.53333333  1
  Na  Na617  1  0.03333333  0.10000000  0.73333333  1
  Na  Na618  1  0.03333333  0.10000000  0.93333333  1
  Na  Na619  1  0.03333333  0.30000000  0.13333333  1
  Na  Na620  1  0.03333333  0.30000000  0.33333333  1
  Na  Na621  1  0.03333333  0.30000000  0.53333333  1
  Na  Na622  1  0.03333333  0.30000000  0.73333333  1
  Na  Na623  1  0.03333333  0.30000000  0.93333333  1
  Na  Na624  1  0.03333333  0.50000000  0.13333333  1
  Na  Na625  1  0.03333333  0.50000000  0.33333333  1
  Na  Na626  1  0.03333333  0.50000000  0.53333333  1
  Na  Na627  1  0.03333333  0.50000000  0.73333333  1
  Na  Na628  1  0.03333333  0.50000000  0.93333333  1
  Na  Na629  1  0.03333333  0.70000000  0.13333333  1
  Na  Na630  1  0.03333333  0.70000000  0.33333333  1
  Na  Na631  1  0.03333333  0.70000000  0.53333333  1
  Na  Na632  1  0.03333333  0.70000000  0.73333333  1
  Na  Na633  1  0.03333333  0.70000000  0.93333333  1
  Na  Na634  1  0.03333333  0.90000000  0.13333333  1
  Na  Na635  1  0.03333333  0.90000000  0.33333333  1
  Na  Na636  1  0.03333333  0.90000000  0.53333333  1
  Na  Na637  1  0.03333333  0.90000000  0.73333333  1
  Na  Na638  1  0.03333333  0.90000000  0.93333333  1
  Na  Na639  1  0.23333333  0.10000000  0.13333333  1
  Na  Na640  1  0.23333333  0.10000000  0.33333333  1
  Na  Na641  1  0.23333333  0.10000000  0.53333333  1
  Na  Na642  1  0.23333333  0.10000000  0.73333333  1
  Na  Na643  1  0.23333333  0.10000000  0.93333333  1
  Na  Na644  1  0.23333333  0.30000000  0.13333333  1
  Na  Na645  1  0.23333333  0.30000000  0.33333333  1
  Na  Na646  1  0.23333333  0.30000000  0.53333333  1
  Na  Na647  1  0.23333333  0.30000000  0.73333333  1
  Na  Na648  1  0.23333333  0.30000000  0.93333333  1
  Na  Na649  1  0.23333333  0.50000000  0.13333333  1
  Na  Na650  1  0.23333333  0.50000000  0.33333333  1
  Na  Na651  1  0.23333333  0.50000000  0.53333333  1
  Na  Na652  1  0.23333333  0.50000000  0.73333333  1
  Na  Na653  1  0.23333333  0.50000000  0.93333333  1
  Na  Na654  1  0.23333333  0.70000000  0.13333333  1
  Na  Na655  1  0.23333333  0.70000000  0.33333333  1
  Na  Na656  1  0.23333333  0.70000000  0.53333333  1
  Na  Na657  1  0.23333333  0.70000000  0.73333333  1
  Na  Na658  1  0.23333333  0.70000000  0.93333333  1
  Na  Na659  1  0.23333333  0.90000000  0.13333333  1
  Na  Na660  1  0.23333333  0.90000000  0.33333333  1
  Na  Na661  1  0.23333333  0.90000000  0.53333333  1
  Na  Na662  1  0.23333333  0.90000000  0.73333333  1
  Na  Na663  1  0.23333333  0.90000000  0.93333333  1
  Na  Na664  1  0.43333333  0.10000000  0.13333333  1
  Na  Na665  1  0.43333333  0.10000000  0.33333333  1
  Na  Na666  1  0.43333333  0.10000000  0.53333333  1
  Na  Na667  1  0.43333333  0.10000000  0.73333333  1
  Na  Na668  1  0.43333333  0.10000000  0.93333333  1
  Na  Na669  1  0.43333333  0.30000000  0.13333333  1
  Na  Na670  1  0.43333333  0.30000000  0.33333333  1
  Na  Na671  1  0.43333333  0.30000000  0.53333333  1
  Na  Na672  1  0.43333333  0.30000000  0.73333333  1
  Na  Na673  1  0.43333333  0.30000000  0.93333333  1
  Na  Na674  1  0.43333333  0.50000000  0.13333333  1
  Na  Na675  1  0.43333333  0.50000000  0.33333333  1
  Na  Na676  1  0.43333333  0.50000000  0.53333333  1
  Na  Na677  1  0.43333333  0.50000000  0.73333333  1
  Na  Na678  1  0.43333333  0.50000000  0.93333333  1
  Na  Na679  1  0.43333333  0.70000000  0.13333333  1
  Na  Na680  1  0.43333333  0.70000000  0.33333333  1
  Na  Na681  1  0.43333333  0.70000000  0.53333333  1
  Na  Na682  1  0.43333333  0.70000000  0.73333333  1
  Na  Na683  1  0.43333333  0.70000000  0.93333333  1
  Na  Na684  1  0.43333333  0.90000000  0.13333333  1
  Na  Na685  1  0.43333333  0.90000000  0.33333333  1
  Na  Na686  1  0.43333333  0.90000000  0.53333333  1
  Na  Na687  1  0.43333333  0.90000000  0.73333333  1
  Na  Na688  1  0.43333333  0.90000000  0.93333333  1
  Na  Na689  1  0.63333333  0.10000000  0.13333333  1
  Na  Na690  1  0.63333333  0.10000000  0.33333333  1
  Na  Na691  1  0.63333333  0.10000000  0.53333333  1
  Na  Na692  1  0.63333333  0.10000000  0.73333333  1
  Na  Na693  1  0.63333333  0.10000000  0.93333333  1
  Na  Na694  1  0.63333333  0.30000000  0.13333333  1
  Na  Na695  1  0.63333333  0.30000000  0.33333333  1
  Na  Na696  1  0.63333333  0.30000000  0.53333333  1
  Na  Na697  1  0.63333333  0.30000000  0.73333333  1
  Na  Na698  1  0.63333333  0.30000000  0.93333333  1
  Na  Na699  1  0.63333333  0.50000000  0.33333333  1
  Na  Na700  1  0.63333333  0.50000000  0.53333333  1
  Na  Na701  1  0.63333333  0.50000000  0.73333333  1
  Na  Na702  1  0.63333333  0.50000000  0.93333333  1
  Na  Na703  1  0.63333333  0.70000000  0.13333333  1
  Na  Na704  1  0.63333333  0.70000000  0.33333333  1
  Na  Na705  1  0.63333333  0.70000000  0.53333333  1
  Na  Na706  1  0.63333333  0.70000000  0.73333333  1
  Na  Na707  1  0.63333333  0.70000000  0.93333333  1
  Na  Na708  1  0.63333333  0.90000000  0.13333333  1
  Na  Na709  1  0.63333333  0.90000000  0.33333333  1
  Na  Na710  1  0.63333333  0.90000000  0.53333333  1
  Na  Na711  1  0.63333333  0.90000000  0.73333333  1
  Na  Na712  1  0.63333333  0.90000000  0.93333333  1
  Na  Na713  1  0.83333333  0.10000000  0.13333333  1
  Na  Na714  1  0.83333333  0.10000000  0.33333333  1
  Na  Na715  1  0.83333333  0.10000000  0.53333333  1
  Na  Na716  1  0.83333333  0.10000000  0.73333333  1
  Na  Na717  1  0.83333333  0.10000000  0.93333333  1
  Na  Na718  1  0.83333333  0.30000000  0.13333333  1
  Na  Na719  1  0.83333333  0.30000000  0.33333333  1
  Na  Na720  1  0.83333333  0.30000000  0.53333333  1
  Na  Na721  1  0.83333333  0.30000000  0.73333333  1
  Na  Na722  1  0.83333333  0.30000000  0.93333333  1
  Na  Na723  1  0.83333333  0.50000000  0.13333333  1
  Na  Na724  1  0.83333333  0.50000000  0.33333333  1
  Na  Na725  1  0.83333333  0.50000000  0.53333333  1
  Na  Na726  1  0.83333333  0.50000000  0.73333333  1
  Na  Na727  1  0.83333333  0.50000000  0.93333333  1
  Na  Na728  1  0.83333333  0.70000000  0.13333333  1
  Na  Na729  1  0.83333333  0.70000000  0.33333333  1
  Na  Na730  1  0.83333333  0.70000000  0.53333333  1
  Na  Na731  1  0.83333333  0.70000000  0.73333333  1
  Na  Na732  1  0.83333333  0.70000000  0.93333333  1
  Na  Na733  1  0.83333333  0.90000000  0.13333333  1
  Na  Na734  1  0.83333333  0.90000000  0.33333333  1
  Na  Na735  1  0.83333333  0.90000000  0.53333333  1
  Na  Na736  1  0.83333333  0.90000000  0.73333333  1
  Na  Na737  1  0.83333333  0.90000000  0.93333333  1
  Na  Na738  1  0.03333333  0.16666667  0.00000000  1
  Na  Na739  1  0.03333333  0.16666667  0.20000000  1
  Na  Na740  1  0.03333333  0.16666667  0.40000000  1
  Na  Na741  1  0.03333333  0.16666667  0.60000000  1
  Na  Na742  1  0.03333333  0.16666667  0.80000000  1
  Na  Na743  1  0.03333333  0.36666667  0.00000000  1
  Na  Na744  1  0.03333333  0.36666667  0.20000000  1
  Na  Na745  1  0.03333333  0.36666667  0.40000000  1
  Na  Na746  1  0.03333333  0.36666667  0.60000000  1
  Na  Na747  1  0.03333333  0.36666667  0.80000000  1
  Na  Na748  1  0.03333333  0.56666667  0.00000000  1
  Na  Na749  1  0.03333333  0.56666667  0.20000000  1
  Na  Na750  1  0.03333333  0.56666667  0.40000000  1
  Na  Na751  1  0.03333333  0.56666667  0.60000000  1
  Na  Na752  1  0.03333333  0.56666667  0.80000000  1
  Na  Na753  1  0.03333333  0.76666667  0.00000000  1
  Na  Na754  1  0.03333333  0.76666667  0.20000000  1
  Na  Na755  1  0.03333333  0.76666667  0.40000000  1
  Na  Na756  1  0.03333333  0.76666667  0.60000000  1
  Na  Na757  1  0.03333333  0.76666667  0.80000000  1
  Na  Na758  1  0.03333333  0.96666667  0.00000000  1
  Na  Na759  1  0.03333333  0.96666667  0.20000000  1
  Na  Na760  1  0.03333333  0.96666667  0.40000000  1
  Na  Na761  1  0.03333333  0.96666667  0.60000000  1
  Na  Na762  1  0.03333333  0.96666667  0.80000000  1
  Na  Na763  1  0.23333333  0.16666667  0.00000000  1
  Na  Na764  1  0.23333333  0.16666667  0.20000000  1
  Na  Na765  1  0.23333333  0.16666667  0.40000000  1
  Na  Na766  1  0.23333333  0.16666667  0.60000000  1
  Na  Na767  1  0.23333333  0.16666667  0.80000000  1
  Na  Na768  1  0.23333333  0.36666667  0.00000000  1
  Na  Na769  1  0.23333333  0.36666667  0.20000000  1
  Na  Na770  1  0.23333333  0.36666667  0.40000000  1
  Na  Na771  1  0.23333333  0.36666667  0.60000000  1
  Na  Na772  1  0.23333333  0.36666667  0.80000000  1
  Na  Na773  1  0.23333333  0.56666667  0.00000000  1
  Na  Na774  1  0.23333333  0.56666667  0.20000000  1
  Na  Na775  1  0.23333333  0.56666667  0.40000000  1
  Na  Na776  1  0.23333333  0.56666667  0.60000000  1
  Na  Na777  1  0.23333333  0.56666667  0.80000000  1
  Na  Na778  1  0.23333333  0.76666667  0.00000000  1
  Na  Na779  1  0.23333333  0.76666667  0.20000000  1
  Na  Na780  1  0.23333333  0.76666667  0.40000000  1
  Na  Na781  1  0.23333333  0.76666667  0.60000000  1
  Na  Na782  1  0.23333333  0.76666667  0.80000000  1
  Na  Na783  1  0.23333333  0.96666667  0.00000000  1
  Na  Na784  1  0.23333333  0.96666667  0.20000000  1
  Na  Na785  1  0.23333333  0.96666667  0.40000000  1
  Na  Na786  1  0.23333333  0.96666667  0.60000000  1
  Na  Na787  1  0.23333333  0.96666667  0.80000000  1
  Na  Na788  1  0.43333333  0.16666667  0.00000000  1
  Na  Na789  1  0.43333333  0.16666667  0.20000000  1
  Na  Na790  1  0.43333333  0.16666667  0.40000000  1
  Na  Na791  1  0.43333333  0.16666667  0.60000000  1
  Na  Na792  1  0.43333333  0.16666667  0.80000000  1
  Na  Na793  1  0.43333333  0.36666667  0.00000000  1
  Na  Na794  1  0.43333333  0.36666667  0.20000000  1
  Na  Na795  1  0.43333333  0.36666667  0.40000000  1
  Na  Na796  1  0.43333333  0.36666667  0.60000000  1
  Na  Na797  1  0.43333333  0.36666667  0.80000000  1
  Na  Na798  1  0.43333333  0.56666667  0.00000000  1
  Na  Na799  1  0.43333333  0.56666667  0.20000000  1
  Na  Na800  1  0.43333333  0.56666667  0.40000000  1
  Na  Na801  1  0.43333333  0.56666667  0.60000000  1
  Na  Na802  1  0.43333333  0.56666667  0.80000000  1
  Na  Na803  1  0.43333333  0.76666667  0.00000000  1
  Na  Na804  1  0.43333333  0.76666667  0.20000000  1
  Na  Na805  1  0.43333333  0.76666667  0.40000000  1
  Na  Na806  1  0.43333333  0.76666667  0.60000000  1
  Na  Na807  1  0.43333333  0.76666667  0.80000000  1
  Na  Na808  1  0.43333333  0.96666667  0.00000000  1
  Na  Na809  1  0.43333333  0.96666667  0.20000000  1
  Na  Na810  1  0.43333333  0.96666667  0.40000000  1
  Na  Na811  1  0.43333333  0.96666667  0.60000000  1
  Na  Na812  1  0.43333333  0.96666667  0.80000000  1
  Na  Na813  1  0.63333333  0.16666667  0.00000000  1
  Na  Na814  1  0.63333333  0.16666667  0.20000000  1
  Na  Na815  1  0.63333333  0.16666667  0.40000000  1
  Na  Na816  1  0.63333333  0.16666667  0.60000000  1
  Na  Na817  1  0.63333333  0.16666667  0.80000000  1
  Na  Na818  1  0.63333333  0.36666667  0.00000000  1
  Na  Na819  1  0.63333333  0.36666667  0.20000000  1
  Na  Na820  1  0.63333333  0.36666667  0.40000000  1
  Na  Na821  1  0.63333333  0.36666667  0.60000000  1
  Na  Na822  1  0.63333333  0.36666667  0.80000000  1
  Na  Na823  1  0.63333333  0.56666667  0.00000000  1
  Na  Na824  1  0.63333333  0.56666667  0.20000000  1
  Na  Na825  1  0.63333333  0.56666667  0.40000000  1
  Na  Na826  1  0.63333333  0.56666667  0.60000000  1
  Na  Na827  1  0.63333333  0.76666667  0.00000000  1
  Na  Na828  1  0.63333333  0.76666667  0.20000000  1
  Na  Na829  1  0.63333333  0.76666667  0.40000000  1
  Na  Na830  1  0.63333333  0.76666667  0.60000000  1
  Na  Na831  1  0.63333333  0.76666667  0.80000000  1
  Na  Na832  1  0.63333333  0.96666667  0.00000000  1
  Na  Na833  1  0.63333333  0.96666667  0.20000000  1
  Na  Na834  1  0.63333333  0.96666667  0.40000000  1
  Na  Na835  1  0.63333333  0.96666667  0.60000000  1
  Na  Na836  1  0.63333333  0.96666667  0.80000000  1
  Na  Na837  1  0.83333333  0.16666667  0.00000000  1
  Na  Na838  1  0.83333333  0.16666667  0.20000000  1
  Na  Na839  1  0.83333333  0.16666667  0.40000000  1
  Na  Na840  1  0.83333333  0.16666667  0.60000000  1
  Na  Na841  1  0.83333333  0.16666667  0.80000000  1
  Na  Na842  1  0.83333333  0.36666667  0.00000000  1
  Na  Na843  1  0.83333333  0.36666667  0.20000000  1
  Na  Na844  1  0.83333333  0.36666667  0.40000000  1
  Na  Na845  1  0.83333333  0.36666667  0.60000000  1
  Na  Na846  1  0.83333333  0.36666667  0.80000000  1
  Na  Na847  1  0.83333333  0.56666667  0.00000000  1
  Na  Na848  1  0.83333333  0.56666667  0.20000000  1
  Na  Na849  1  0.83333333  0.56666667  0.40000000  1
  Na  Na850  1  0.83333333  0.56666667  0.60000000  1
  Na  Na851  1  0.83333333  0.56666667  0.80000000  1
  Na  Na852  1  0.83333333  0.76666667  0.00000000  1
  Na  Na853  1  0.83333333  0.76666667  0.20000000  1
  Na  Na854  1  0.83333333  0.76666667  0.40000000  1
  Na  Na855  1  0.83333333  0.76666667  0.60000000  1
  Na  Na856  1  0.83333333  0.76666667  0.80000000  1
  Na  Na857  1  0.83333333  0.96666667  0.00000000  1
  Na  Na858  1  0.83333333  0.96666667  0.20000000  1
  Na  Na859  1  0.83333333  0.96666667  0.40000000  1
  Na  Na860  1  0.83333333  0.96666667  0.60000000  1
  Na  Na861  1  0.83333333  0.96666667  0.80000000  1
  Na  Na862  1  0.03333333  0.16666667  0.06666667  1
  Na  Na863  1  0.03333333  0.16666667  0.26666667  1
  Na  Na864  1  0.03333333  0.16666667  0.46666667  1
  Na  Na865  1  0.03333333  0.16666667  0.66666667  1
  Na  Na866  1  0.03333333  0.16666667  0.86666667  1
  Na  Na867  1  0.03333333  0.36666667  0.06666667  1
  Na  Na868  1  0.03333333  0.36666667  0.26666667  1
  Na  Na869  1  0.03333333  0.36666667  0.46666667  1
  Na  Na870  1  0.03333333  0.36666667  0.66666667  1
  Na  Na871  1  0.03333333  0.36666667  0.86666667  1
  Na  Na872  1  0.03333333  0.56666667  0.06666667  1
  Na  Na873  1  0.03333333  0.56666667  0.26666667  1
  Na  Na874  1  0.03333333  0.56666667  0.46666667  1
  Na  Na875  1  0.03333333  0.56666667  0.66666667  1
  Na  Na876  1  0.03333333  0.56666667  0.86666667  1
  Na  Na877  1  0.03333333  0.76666667  0.06666667  1
  Na  Na878  1  0.03333333  0.76666667  0.26666667  1
  Na  Na879  1  0.03333333  0.76666667  0.46666667  1
  Na  Na880  1  0.03333333  0.76666667  0.66666667  1
  Na  Na881  1  0.03333333  0.76666667  0.86666667  1
  Na  Na882  1  0.03333333  0.96666667  0.06666667  1
  Na  Na883  1  0.03333333  0.96666667  0.26666667  1
  Na  Na884  1  0.03333333  0.96666667  0.46666667  1
  Na  Na885  1  0.03333333  0.96666667  0.66666667  1
  Na  Na886  1  0.03333333  0.96666667  0.86666667  1
  Na  Na887  1  0.23333333  0.16666667  0.06666667  1
  Na  Na888  1  0.23333333  0.16666667  0.26666667  1
  Na  Na889  1  0.23333333  0.16666667  0.46666667  1
  Na  Na890  1  0.23333333  0.16666667  0.66666667  1
  Na  Na891  1  0.23333333  0.16666667  0.86666667  1
  Na  Na892  1  0.23333333  0.36666667  0.06666667  1
  Na  Na893  1  0.23333333  0.36666667  0.26666667  1
  Na  Na894  1  0.23333333  0.36666667  0.46666667  1
  Na  Na895  1  0.23333333  0.36666667  0.86666667  1
  Na  Na896  1  0.23333333  0.56666667  0.06666667  1
  Na  Na897  1  0.23333333  0.56666667  0.26666667  1
  Na  Na898  1  0.23333333  0.56666667  0.46666667  1
  Na  Na899  1  0.23333333  0.56666667  0.66666667  1
  Na  Na900  1  0.23333333  0.56666667  0.86666667  1
  Na  Na901  1  0.23333333  0.76666667  0.06666667  1
  Na  Na902  1  0.23333333  0.76666667  0.26666667  1
  Na  Na903  1  0.23333333  0.76666667  0.46666667  1
  Na  Na904  1  0.23333333  0.76666667  0.66666667  1
  Na  Na905  1  0.23333333  0.76666667  0.86666667  1
  Na  Na906  1  0.23333333  0.96666667  0.06666667  1
  Na  Na907  1  0.23333333  0.96666667  0.26666667  1
  Na  Na908  1  0.23333333  0.96666667  0.46666667  1
  Na  Na909  1  0.23333333  0.96666667  0.66666667  1
  Na  Na910  1  0.23333333  0.96666667  0.86666667  1
  Na  Na911  1  0.43333333  0.16666667  0.06666667  1
  Na  Na912  1  0.43333333  0.16666667  0.26666667  1
  Na  Na913  1  0.43333333  0.16666667  0.46666667  1
  Na  Na914  1  0.43333333  0.16666667  0.66666667  1
  Na  Na915  1  0.43333333  0.16666667  0.86666667  1
  Na  Na916  1  0.43333333  0.36666667  0.06666667  1
  Na  Na917  1  0.43333333  0.36666667  0.26666667  1
  Na  Na918  1  0.43333333  0.36666667  0.46666667  1
  Na  Na919  1  0.43333333  0.36666667  0.66666667  1
  Na  Na920  1  0.43333333  0.36666667  0.86666667  1
  Na  Na921  1  0.43333333  0.56666667  0.06666667  1
  Na  Na922  1  0.43333333  0.56666667  0.26666667  1
  Na  Na923  1  0.43333333  0.56666667  0.46666667  1
  Na  Na924  1  0.43333333  0.56666667  0.66666667  1
  Na  Na925  1  0.43333333  0.56666667  0.86666667  1
  Na  Na926  1  0.43333333  0.76666667  0.06666667  1
  Na  Na927  1  0.43333333  0.76666667  0.26666667  1
  Na  Na928  1  0.43333333  0.76666667  0.46666667  1
  Na  Na929  1  0.43333333  0.76666667  0.66666667  1
  Na  Na930  1  0.43333333  0.76666667  0.86666667  1
  Na  Na931  1  0.43333333  0.96666667  0.06666667  1
  Na  Na932  1  0.43333333  0.96666667  0.26666667  1
  Na  Na933  1  0.43333333  0.96666667  0.46666667  1
  Na  Na934  1  0.43333333  0.96666667  0.86666667  1
  Na  Na935  1  0.63333333  0.16666667  0.06666667  1
  Na  Na936  1  0.63333333  0.16666667  0.26666667  1
  Na  Na937  1  0.63333333  0.16666667  0.46666667  1
  Na  Na938  1  0.63333333  0.16666667  0.66666667  1
  Na  Na939  1  0.63333333  0.16666667  0.86666667  1
  Na  Na940  1  0.63333333  0.36666667  0.06666667  1
  Na  Na941  1  0.63333333  0.36666667  0.26666667  1
  Na  Na942  1  0.63333333  0.36666667  0.46666667  1
  Na  Na943  1  0.63333333  0.36666667  0.66666667  1
  Na  Na944  1  0.63333333  0.36666667  0.86666667  1
  Na  Na945  1  0.63333333  0.56666667  0.06666667  1
  Na  Na946  1  0.63333333  0.56666667  0.26666667  1
  Na  Na947  1  0.63333333  0.56666667  0.46666667  1
  Na  Na948  1  0.63333333  0.56666667  0.66666667  1
  Na  Na949  1  0.63333333  0.56666667  0.86666667  1
  Na  Na950  1  0.63333333  0.76666667  0.06666667  1
  Na  Na951  1  0.63333333  0.76666667  0.26666667  1
  Na  Na952  1  0.63333333  0.76666667  0.46666667  1
  Na  Na953  1  0.63333333  0.76666667  0.66666667  1
  Na  Na954  1  0.63333333  0.76666667  0.86666667  1
  Na  Na955  1  0.63333333  0.96666667  0.06666667  1
  Na  Na956  1  0.63333333  0.96666667  0.26666667  1
  Na  Na957  1  0.63333333  0.96666667  0.46666667  1
  Na  Na958  1  0.63333333  0.96666667  0.66666667  1
  Na  Na959  1  0.63333333  0.96666667  0.86666667  1
  Na  Na960  1  0.83333333  0.16666667  0.06666667  1
  Na  Na961  1  0.83333333  0.16666667  0.26666667  1
  Na  Na962  1  0.83333333  0.16666667  0.46666667  1
  Na  Na963  1  0.83333333  0.16666667  0.66666667  1
  Na  Na964  1  0.83333333  0.16666667  0.86666667  1
  Na  Na965  1  0.83333333  0.36666667  0.06666667  1
  Na  Na966  1  0.83333333  0.36666667  0.26666667  1
  Na  Na967  1  0.83333333  0.36666667  0.46666667  1
  Na  Na968  1  0.83333333  0.36666667  0.66666667  1
  Na  Na969  1  0.83333333  0.36666667  0.86666667  1
  Na  Na970  1  0.83333333  0.56666667  0.06666667  1
  Na  Na971  1  0.83333333  0.56666667  0.26666667  1
  Na  Na972  1  0.83333333  0.56666667  0.46666667  1
  Na  Na973  1  0.83333333  0.56666667  0.66666667  1
  Na  Na974  1  0.83333333  0.56666667  0.86666667  1
  Na  Na975  1  0.83333333  0.76666667  0.06666667  1
  Na  Na976  1  0.83333333  0.76666667  0.26666667  1
  Na  Na977  1  0.83333333  0.76666667  0.46666667  1
  Na  Na978  1  0.83333333  0.76666667  0.66666667  1
  Na  Na979  1  0.83333333  0.76666667  0.86666667  1
  Na  Na980  1  0.83333333  0.96666667  0.06666667  1
  Na  Na981  1  0.83333333  0.96666667  0.26666667  1
  Na  Na982  1  0.83333333  0.96666667  0.46666667  1
  Na  Na983  1  0.83333333  0.96666667  0.66666667  1
  Na  Na984  1  0.83333333  0.96666667  0.86666667  1
  Na  Na985  1  0.03333333  0.16666667  0.13333333  1
  Na  Na986  1  0.03333333  0.16666667  0.33333333  1
  Na  Na987  1  0.03333333  0.16666667  0.53333333  1
  Na  Na988  1  0.03333333  0.16666667  0.73333333  1
  Na  Na989  1  0.03333333  0.16666667  0.93333333  1
  Na  Na990  1  0.03333333  0.36666667  0.13333333  1
  Na  Na991  1  0.03333333  0.36666667  0.33333333  1
  Na  Na992  1  0.03333333  0.36666667  0.53333333  1
  Na  Na993  1  0.03333333  0.36666667  0.73333333  1
  Na  Na994  1  0.03333333  0.36666667  0.93333333  1
  Na  Na995  1  0.03333333  0.56666667  0.13333333  1
  Na  Na996  1  0.03333333  0.56666667  0.33333333  1
  Na  Na997  1  0.03333333  0.56666667  0.53333333  1
  Na  Na998  1  0.03333333  0.56666667  0.73333333  1
  Na  Na999  1  0.03333333  0.56666667  0.93333333  1
  Na  Na1000  1  0.03333333  0.76666667  0.13333333  1
  Na  Na1001  1  0.03333333  0.76666667  0.33333333  1
  Na  Na1002  1  0.03333333  0.76666667  0.53333333  1
  Na  Na1003  1  0.03333333  0.76666667  0.73333333  1
  Na  Na1004  1  0.03333333  0.76666667  0.93333333  1
  Na  Na1005  1  0.03333333  0.96666667  0.13333333  1
  Na  Na1006  1  0.03333333  0.96666667  0.33333333  1
  Na  Na1007  1  0.03333333  0.96666667  0.53333333  1
  Na  Na1008  1  0.03333333  0.96666667  0.73333333  1
  Na  Na1009  1  0.03333333  0.96666667  0.93333333  1
  Na  Na1010  1  0.23333333  0.16666667  0.13333333  1
  Na  Na1011  1  0.23333333  0.16666667  0.33333333  1
  Na  Na1012  1  0.23333333  0.16666667  0.53333333  1
  Na  Na1013  1  0.23333333  0.16666667  0.73333333  1
  Na  Na1014  1  0.23333333  0.16666667  0.93333333  1
  Na  Na1015  1  0.23333333  0.36666667  0.13333333  1
  Na  Na1016  1  0.23333333  0.36666667  0.33333333  1
  Na  Na1017  1  0.23333333  0.36666667  0.53333333  1
  Na  Na1018  1  0.23333333  0.36666667  0.73333333  1
  Na  Na1019  1  0.23333333  0.36666667  0.93333333  1
  Na  Na1020  1  0.23333333  0.56666667  0.13333333  1
  Na  Na1021  1  0.23333333  0.56666667  0.33333333  1
  Na  Na1022  1  0.23333333  0.56666667  0.53333333  1
  Na  Na1023  1  0.23333333  0.56666667  0.73333333  1
  Na  Na1024  1  0.23333333  0.56666667  0.93333333  1
  Na  Na1025  1  0.23333333  0.76666667  0.13333333  1
  Na  Na1026  1  0.23333333  0.76666667  0.33333333  1
  Na  Na1027  1  0.23333333  0.76666667  0.53333333  1
  Na  Na1028  1  0.23333333  0.76666667  0.73333333  1
  Na  Na1029  1  0.23333333  0.76666667  0.93333333  1
  Na  Na1030  1  0.23333333  0.96666667  0.13333333  1
  Na  Na1031  1  0.23333333  0.96666667  0.33333333  1
  Na  Na1032  1  0.23333333  0.96666667  0.53333333  1
  Na  Na1033  1  0.23333333  0.96666667  0.73333333  1
  Na  Na1034  1  0.23333333  0.96666667  0.93333333  1
  Na  Na1035  1  0.43333333  0.16666667  0.13333333  1
  Na  Na1036  1  0.43333333  0.16666667  0.33333333  1
  Na  Na1037  1  0.43333333  0.16666667  0.73333333  1
  Na  Na1038  1  0.43333333  0.16666667  0.93333333  1
  Na  Na1039  1  0.43333333  0.36666667  0.13333333  1
  Na  Na1040  1  0.43333333  0.36666667  0.33333333  1
  Na  Na1041  1  0.43333333  0.36666667  0.53333333  1
  Na  Na1042  1  0.43333333  0.36666667  0.73333333  1
  Na  Na1043  1  0.43333333  0.36666667  0.93333333  1
  Na  Na1044  1  0.43333333  0.56666667  0.13333333  1
  Na  Na1045  1  0.43333333  0.56666667  0.33333333  1
  Na  Na1046  1  0.43333333  0.56666667  0.53333333  1
  Na  Na1047  1  0.43333333  0.56666667  0.73333333  1
  Na  Na1048  1  0.43333333  0.56666667  0.93333333  1
  Na  Na1049  1  0.43333333  0.76666667  0.13333333  1
  Na  Na1050  1  0.43333333  0.76666667  0.33333333  1
  Na  Na1051  1  0.43333333  0.76666667  0.53333333  1
  Na  Na1052  1  0.43333333  0.76666667  0.73333333  1
  Na  Na1053  1  0.43333333  0.76666667  0.93333333  1
  Na  Na1054  1  0.43333333  0.96666667  0.13333333  1
  Na  Na1055  1  0.43333333  0.96666667  0.33333333  1
  Na  Na1056  1  0.43333333  0.96666667  0.53333333  1
  Na  Na1057  1  0.43333333  0.96666667  0.73333333  1
  Na  Na1058  1  0.43333333  0.96666667  0.93333333  1
  Na  Na1059  1  0.63333333  0.16666667  0.13333333  1
  Na  Na1060  1  0.63333333  0.16666667  0.33333333  1
  Na  Na1061  1  0.63333333  0.16666667  0.53333333  1
  Na  Na1062  1  0.63333333  0.16666667  0.73333333  1
  Na  Na1063  1  0.63333333  0.16666667  0.93333333  1
  Na  Na1064  1  0.63333333  0.36666667  0.13333333  1
  Na  Na1065  1  0.63333333  0.36666667  0.33333333  1
  Na  Na1066  1  0.63333333  0.36666667  0.53333333  1
  Na  Na1067  1  0.63333333  0.36666667  0.93333333  1
  Na  Na1068  1  0.63333333  0.56666667  0.13333333  1
  Na  Na1069  1  0.63333333  0.56666667  0.33333333  1
  Na  Na1070  1  0.63333333  0.56666667  0.53333333  1
  Na  Na1071  1  0.63333333  0.56666667  0.73333333  1
  Na  Na1072  1  0.63333333  0.56666667  0.93333333  1
  Na  Na1073  1  0.63333333  0.76666667  0.13333333  1
  Na  Na1074  1  0.63333333  0.76666667  0.33333333  1
  Na  Na1075  1  0.63333333  0.76666667  0.53333333  1
  Na  Na1076  1  0.63333333  0.76666667  0.73333333  1
  Na  Na1077  1  0.63333333  0.76666667  0.93333333  1
  Na  Na1078  1  0.63333333  0.96666667  0.13333333  1
  Na  Na1079  1  0.63333333  0.96666667  0.33333333  1
  Na  Na1080  1  0.63333333  0.96666667  0.53333333  1
  Na  Na1081  1  0.63333333  0.96666667  0.73333333  1
  Na  Na1082  1  0.63333333  0.96666667  0.93333333  1
  Na  Na1083  1  0.83333333  0.16666667  0.13333333  1
  Na  Na1084  1  0.83333333  0.16666667  0.33333333  1
  Na  Na1085  1  0.83333333  0.16666667  0.53333333  1
  Na  Na1086  1  0.83333333  0.16666667  0.73333333  1
  Na  Na1087  1  0.83333333  0.16666667  0.93333333  1
  Na  Na1088  1  0.83333333  0.36666667  0.13333333  1
  Na  Na1089  1  0.83333333  0.36666667  0.33333333  1
  Na  Na1090  1  0.83333333  0.36666667  0.53333333  1
  Na  Na1091  1  0.83333333  0.36666667  0.73333333  1
  Na  Na1092  1  0.83333333  0.36666667  0.93333333  1
  Na  Na1093  1  0.83333333  0.56666667  0.13333333  1
  Na  Na1094  1  0.83333333  0.56666667  0.33333333  1
  Na  Na1095  1  0.83333333  0.56666667  0.73333333  1
  Na  Na1096  1  0.83333333  0.56666667  0.93333333  1
  Na  Na1097  1  0.83333333  0.76666667  0.13333333  1
  Na  Na1098  1  0.83333333  0.76666667  0.33333333  1
  Na  Na1099  1  0.83333333  0.76666667  0.53333333  1
  Na  Na1100  1  0.83333333  0.76666667  0.73333333  1
  Na  Na1101  1  0.83333333  0.76666667  0.93333333  1
  Na  Na1102  1  0.83333333  0.96666667  0.13333333  1
  Na  Na1103  1  0.83333333  0.96666667  0.33333333  1
  Na  Na1104  1  0.83333333  0.96666667  0.53333333  1
  Na  Na1105  1  0.83333333  0.96666667  0.73333333  1
  Na  Na1106  1  0.83333333  0.96666667  0.93333333  1
  Na  Na1107  1  0.10000000  0.03333333  0.00000000  1
  Na  Na1108  1  0.10000000  0.03333333  0.20000000  1
  Na  Na1109  1  0.10000000  0.03333333  0.40000000  1
  Na  Na1110  1  0.10000000  0.03333333  0.60000000  1
  Na  Na1111  1  0.10000000  0.03333333  0.80000000  1
  Na  Na1112  1  0.10000000  0.23333333  0.00000000  1
  Na  Na1113  1  0.10000000  0.23333333  0.20000000  1
  Na  Na1114  1  0.10000000  0.23333333  0.40000000  1
  Na  Na1115  1  0.10000000  0.23333333  0.60000000  1
  Na  Na1116  1  0.10000000  0.23333333  0.80000000  1
  Na  Na1117  1  0.10000000  0.43333333  0.00000000  1
  Na  Na1118  1  0.10000000  0.43333333  0.20000000  1
  Na  Na1119  1  0.10000000  0.43333333  0.40000000  1
  Na  Na1120  1  0.10000000  0.43333333  0.60000000  1
  Na  Na1121  1  0.10000000  0.43333333  0.80000000  1
  Na  Na1122  1  0.10000000  0.63333333  0.00000000  1
  Na  Na1123  1  0.10000000  0.63333333  0.20000000  1
  Na  Na1124  1  0.10000000  0.63333333  0.40000000  1
  Na  Na1125  1  0.10000000  0.63333333  0.60000000  1
  Na  Na1126  1  0.10000000  0.63333333  0.80000000  1
  Na  Na1127  1  0.10000000  0.83333333  0.00000000  1
  Na  Na1128  1  0.10000000  0.83333333  0.20000000  1
  Na  Na1129  1  0.10000000  0.83333333  0.40000000  1
  Na  Na1130  1  0.10000000  0.83333333  0.60000000  1
  Na  Na1131  1  0.10000000  0.83333333  0.80000000  1
  Na  Na1132  1  0.30000000  0.03333333  0.00000000  1
  Na  Na1133  1  0.30000000  0.03333333  0.20000000  1
  Na  Na1134  1  0.30000000  0.03333333  0.40000000  1
  Na  Na1135  1  0.30000000  0.03333333  0.60000000  1
  Na  Na1136  1  0.30000000  0.03333333  0.80000000  1
  Na  Na1137  1  0.30000000  0.23333333  0.00000000  1
  Na  Na1138  1  0.30000000  0.23333333  0.20000000  1
  Na  Na1139  1  0.30000000  0.23333333  0.40000000  1
  Na  Na1140  1  0.30000000  0.23333333  0.60000000  1
  Na  Na1141  1  0.30000000  0.23333333  0.80000000  1
  Na  Na1142  1  0.30000000  0.43333333  0.20000000  1
  Na  Na1143  1  0.30000000  0.43333333  0.40000000  1
  Na  Na1144  1  0.30000000  0.43333333  0.60000000  1
  Na  Na1145  1  0.30000000  0.43333333  0.80000000  1
  Na  Na1146  1  0.30000000  0.63333333  0.00000000  1
  Na  Na1147  1  0.30000000  0.63333333  0.20000000  1
  Na  Na1148  1  0.30000000  0.63333333  0.40000000  1
  Na  Na1149  1  0.30000000  0.63333333  0.60000000  1
  Na  Na1150  1  0.30000000  0.63333333  0.80000000  1
  Na  Na1151  1  0.30000000  0.83333333  0.00000000  1
  Na  Na1152  1  0.30000000  0.83333333  0.20000000  1
  Na  Na1153  1  0.30000000  0.83333333  0.40000000  1
  Na  Na1154  1  0.30000000  0.83333333  0.60000000  1
  Na  Na1155  1  0.30000000  0.83333333  0.80000000  1
  Na  Na1156  1  0.50000000  0.03333333  0.00000000  1
  Na  Na1157  1  0.50000000  0.03333333  0.20000000  1
  Na  Na1158  1  0.50000000  0.03333333  0.40000000  1
  Na  Na1159  1  0.50000000  0.03333333  0.60000000  1
  Na  Na1160  1  0.50000000  0.03333333  0.80000000  1
  Na  Na1161  1  0.50000000  0.23333333  0.00000000  1
  Na  Na1162  1  0.50000000  0.23333333  0.20000000  1
  Na  Na1163  1  0.50000000  0.23333333  0.40000000  1
  Na  Na1164  1  0.50000000  0.23333333  0.60000000  1
  Na  Na1165  1  0.50000000  0.23333333  0.80000000  1
  Na  Na1166  1  0.50000000  0.43333333  0.00000000  1
  Na  Na1167  1  0.50000000  0.43333333  0.20000000  1
  Na  Na1168  1  0.50000000  0.43333333  0.40000000  1
  Na  Na1169  1  0.50000000  0.43333333  0.60000000  1
  Na  Na1170  1  0.50000000  0.43333333  0.80000000  1
  Na  Na1171  1  0.50000000  0.63333333  0.00000000  1
  Na  Na1172  1  0.50000000  0.63333333  0.20000000  1
  Na  Na1173  1  0.50000000  0.63333333  0.40000000  1
  Na  Na1174  1  0.50000000  0.63333333  0.60000000  1
  Na  Na1175  1  0.50000000  0.63333333  0.80000000  1
  Na  Na1176  1  0.50000000  0.83333333  0.00000000  1
  Na  Na1177  1  0.50000000  0.83333333  0.20000000  1
  Na  Na1178  1  0.50000000  0.83333333  0.40000000  1
  Na  Na1179  1  0.50000000  0.83333333  0.60000000  1
  Na  Na1180  1  0.50000000  0.83333333  0.80000000  1
  Na  Na1181  1  0.70000000  0.03333333  0.00000000  1
  Na  Na1182  1  0.70000000  0.03333333  0.20000000  1
  Na  Na1183  1  0.70000000  0.03333333  0.40000000  1
  Na  Na1184  1  0.70000000  0.03333333  0.60000000  1
  Na  Na1185  1  0.70000000  0.03333333  0.80000000  1
  Na  Na1186  1  0.70000000  0.23333333  0.00000000  1
  Na  Na1187  1  0.70000000  0.23333333  0.20000000  1
  Na  Na1188  1  0.70000000  0.23333333  0.40000000  1
  Na  Na1189  1  0.70000000  0.23333333  0.60000000  1
  Na  Na1190  1  0.70000000  0.23333333  0.80000000  1
  Na  Na1191  1  0.70000000  0.43333333  0.00000000  1
  Na  Na1192  1  0.70000000  0.43333333  0.40000000  1
  Na  Na1193  1  0.70000000  0.43333333  0.60000000  1
  Na  Na1194  1  0.70000000  0.43333333  0.80000000  1
  Na  Na1195  1  0.70000000  0.63333333  0.00000000  1
  Na  Na1196  1  0.70000000  0.63333333  0.20000000  1
  Na  Na1197  1  0.70000000  0.63333333  0.40000000  1
  Na  Na1198  1  0.70000000  0.63333333  0.60000000  1
  Na  Na1199  1  0.70000000  0.63333333  0.80000000  1
  Na  Na1200  1  0.70000000  0.83333333  0.00000000  1
  Na  Na1201  1  0.70000000  0.83333333  0.20000000  1
  Na  Na1202  1  0.70000000  0.83333333  0.40000000  1
  Na  Na1203  1  0.70000000  0.83333333  0.60000000  1
  Na  Na1204  1  0.70000000  0.83333333  0.80000000  1
  Na  Na1205  1  0.90000000  0.03333333  0.00000000  1
  Na  Na1206  1  0.90000000  0.03333333  0.20000000  1
  Na  Na1207  1  0.90000000  0.03333333  0.40000000  1
  Na  Na1208  1  0.90000000  0.03333333  0.60000000  1
  Na  Na1209  1  0.90000000  0.03333333  0.80000000  1
  Na  Na1210  1  0.90000000  0.23333333  0.00000000  1
  Na  Na1211  1  0.90000000  0.23333333  0.20000000  1
  Na  Na1212  1  0.90000000  0.23333333  0.40000000  1
  Na  Na1213  1  0.90000000  0.23333333  0.60000000  1
  Na  Na1214  1  0.90000000  0.23333333  0.80000000  1
  Na  Na1215  1  0.90000000  0.43333333  0.00000000  1
  Na  Na1216  1  0.90000000  0.43333333  0.20000000  1
  Na  Na1217  1  0.90000000  0.43333333  0.40000000  1
  Na  Na1218  1  0.90000000  0.43333333  0.60000000  1
  Na  Na1219  1  0.90000000  0.43333333  0.80000000  1
  Na  Na1220  1  0.90000000  0.63333333  0.00000000  1
  Na  Na1221  1  0.90000000  0.63333333  0.20000000  1
  Na  Na1222  1  0.90000000  0.63333333  0.40000000  1
  Na  Na1223  1  0.90000000  0.63333333  0.60000000  1
  Na  Na1224  1  0.90000000  0.63333333  0.80000000  1
  Na  Na1225  1  0.90000000  0.83333333  0.00000000  1
  Na  Na1226  1  0.90000000  0.83333333  0.20000000  1
  Na  Na1227  1  0.90000000  0.83333333  0.40000000  1
  Na  Na1228  1  0.90000000  0.83333333  0.60000000  1
  Na  Na1229  1  0.90000000  0.83333333  0.80000000  1
  Na  Na1230  1  0.10000000  0.03333333  0.06666667  1
  Na  Na1231  1  0.10000000  0.03333333  0.26666667  1
  Na  Na1232  1  0.10000000  0.03333333  0.46666667  1
  Na  Na1233  1  0.10000000  0.03333333  0.66666667  1
  Na  Na1234  1  0.10000000  0.03333333  0.86666667  1
  Na  Na1235  1  0.10000000  0.23333333  0.06666667  1
  Na  Na1236  1  0.10000000  0.23333333  0.26666667  1
  Na  Na1237  1  0.10000000  0.23333333  0.46666667  1
  Na  Na1238  1  0.10000000  0.23333333  0.66666667  1
  Na  Na1239  1  0.10000000  0.23333333  0.86666667  1
  Na  Na1240  1  0.10000000  0.43333333  0.06666667  1
  Na  Na1241  1  0.10000000  0.43333333  0.26666667  1
  Na  Na1242  1  0.10000000  0.43333333  0.46666667  1
  Na  Na1243  1  0.10000000  0.43333333  0.66666667  1
  Na  Na1244  1  0.10000000  0.43333333  0.86666667  1
  Na  Na1245  1  0.10000000  0.63333333  0.06666667  1
  Na  Na1246  1  0.10000000  0.63333333  0.26666667  1
  Na  Na1247  1  0.10000000  0.63333333  0.46666667  1
  Na  Na1248  1  0.10000000  0.63333333  0.66666667  1
  Na  Na1249  1  0.10000000  0.63333333  0.86666667  1
  Na  Na1250  1  0.10000000  0.83333333  0.06666667  1
  Na  Na1251  1  0.10000000  0.83333333  0.26666667  1
  Na  Na1252  1  0.10000000  0.83333333  0.46666667  1
  Na  Na1253  1  0.10000000  0.83333333  0.66666667  1
  Na  Na1254  1  0.10000000  0.83333333  0.86666667  1
  Na  Na1255  1  0.30000000  0.03333333  0.06666667  1
  Na  Na1256  1  0.30000000  0.03333333  0.26666667  1
  Na  Na1257  1  0.30000000  0.03333333  0.46666667  1
  Na  Na1258  1  0.30000000  0.03333333  0.66666667  1
  Na  Na1259  1  0.30000000  0.03333333  0.86666667  1
  Na  Na1260  1  0.30000000  0.23333333  0.06666667  1
  Na  Na1261  1  0.30000000  0.23333333  0.46666667  1
  Na  Na1262  1  0.30000000  0.23333333  0.66666667  1
  Na  Na1263  1  0.30000000  0.23333333  0.86666667  1
  Na  Na1264  1  0.30000000  0.43333333  0.06666667  1
  Na  Na1265  1  0.30000000  0.43333333  0.26666667  1
  Na  Na1266  1  0.30000000  0.43333333  0.46666667  1
  Na  Na1267  1  0.30000000  0.43333333  0.66666667  1
  Na  Na1268  1  0.30000000  0.43333333  0.86666667  1
  Na  Na1269  1  0.30000000  0.63333333  0.06666667  1
  Na  Na1270  1  0.30000000  0.63333333  0.26666667  1
  Na  Na1271  1  0.30000000  0.63333333  0.46666667  1
  Na  Na1272  1  0.30000000  0.63333333  0.66666667  1
  Na  Na1273  1  0.30000000  0.63333333  0.86666667  1
  Na  Na1274  1  0.30000000  0.83333333  0.06666667  1
  Na  Na1275  1  0.30000000  0.83333333  0.26666667  1
  Na  Na1276  1  0.30000000  0.83333333  0.46666667  1
  Na  Na1277  1  0.30000000  0.83333333  0.66666667  1
  Na  Na1278  1  0.30000000  0.83333333  0.86666667  1
  Na  Na1279  1  0.50000000  0.03333333  0.06666667  1
  Na  Na1280  1  0.50000000  0.03333333  0.26666667  1
  Na  Na1281  1  0.50000000  0.03333333  0.46666667  1
  Na  Na1282  1  0.50000000  0.03333333  0.66666667  1
  Na  Na1283  1  0.50000000  0.03333333  0.86666667  1
  Na  Na1284  1  0.50000000  0.23333333  0.06666667  1
  Na  Na1285  1  0.50000000  0.23333333  0.26666667  1
  Na  Na1286  1  0.50000000  0.23333333  0.46666667  1
  Na  Na1287  1  0.50000000  0.23333333  0.66666667  1
  Na  Na1288  1  0.50000000  0.23333333  0.86666667  1
  Na  Na1289  1  0.50000000  0.43333333  0.06666667  1
  Na  Na1290  1  0.50000000  0.43333333  0.26666667  1
  Na  Na1291  1  0.50000000  0.43333333  0.46666667  1
  Na  Na1292  1  0.50000000  0.43333333  0.66666667  1
  Na  Na1293  1  0.50000000  0.43333333  0.86666667  1
  Na  Na1294  1  0.50000000  0.63333333  0.06666667  1
  Na  Na1295  1  0.50000000  0.63333333  0.26666667  1
  Na  Na1296  1  0.50000000  0.63333333  0.46666667  1
  Na  Na1297  1  0.50000000  0.63333333  0.66666667  1
  Na  Na1298  1  0.50000000  0.63333333  0.86666667  1
  Na  Na1299  1  0.50000000  0.83333333  0.06666667  1
  Na  Na1300  1  0.50000000  0.83333333  0.26666667  1
  Na  Na1301  1  0.50000000  0.83333333  0.46666667  1
  Na  Na1302  1  0.50000000  0.83333333  0.66666667  1
  Na  Na1303  1  0.50000000  0.83333333  0.86666667  1
  Na  Na1304  1  0.70000000  0.03333333  0.06666667  1
  Na  Na1305  1  0.70000000  0.03333333  0.26666667  1
  Na  Na1306  1  0.70000000  0.03333333  0.46666667  1
  Na  Na1307  1  0.70000000  0.03333333  0.66666667  1
  Na  Na1308  1  0.70000000  0.03333333  0.86666667  1
  Na  Na1309  1  0.70000000  0.23333333  0.06666667  1
  Na  Na1310  1  0.70000000  0.23333333  0.26666667  1
  Na  Na1311  1  0.70000000  0.23333333  0.46666667  1
  Na  Na1312  1  0.70000000  0.23333333  0.66666667  1
  Na  Na1313  1  0.70000000  0.23333333  0.86666667  1
  Na  Na1314  1  0.70000000  0.43333333  0.06666667  1
  Na  Na1315  1  0.70000000  0.43333333  0.26666667  1
  Na  Na1316  1  0.70000000  0.43333333  0.46666667  1
  Na  Na1317  1  0.70000000  0.43333333  0.66666667  1
  Na  Na1318  1  0.70000000  0.43333333  0.86666667  1
  Na  Na1319  1  0.70000000  0.63333333  0.06666667  1
  Na  Na1320  1  0.70000000  0.63333333  0.26666667  1
  Na  Na1321  1  0.70000000  0.63333333  0.46666667  1
  Na  Na1322  1  0.70000000  0.63333333  0.66666667  1
  Na  Na1323  1  0.70000000  0.63333333  0.86666667  1
  Na  Na1324  1  0.70000000  0.83333333  0.06666667  1
  Na  Na1325  1  0.70000000  0.83333333  0.26666667  1
  Na  Na1326  1  0.70000000  0.83333333  0.46666667  1
  Na  Na1327  1  0.70000000  0.83333333  0.66666667  1
  Na  Na1328  1  0.70000000  0.83333333  0.86666667  1
  Na  Na1329  1  0.90000000  0.03333333  0.06666667  1
  Na  Na1330  1  0.90000000  0.03333333  0.26666667  1
  Na  Na1331  1  0.90000000  0.03333333  0.46666667  1
  Na  Na1332  1  0.90000000  0.03333333  0.66666667  1
  Na  Na1333  1  0.90000000  0.03333333  0.86666667  1
  Na  Na1334  1  0.90000000  0.23333333  0.06666667  1
  Na  Na1335  1  0.90000000  0.23333333  0.26666667  1
  Na  Na1336  1  0.90000000  0.23333333  0.46666667  1
  Na  Na1337  1  0.90000000  0.23333333  0.66666667  1
  Na  Na1338  1  0.90000000  0.23333333  0.86666667  1
  Na  Na1339  1  0.90000000  0.43333333  0.06666667  1
  Na  Na1340  1  0.90000000  0.43333333  0.26666667  1
  Na  Na1341  1  0.90000000  0.43333333  0.46666667  1
  Na  Na1342  1  0.90000000  0.43333333  0.66666667  1
  Na  Na1343  1  0.90000000  0.43333333  0.86666667  1
  Na  Na1344  1  0.90000000  0.63333333  0.06666667  1
  Na  Na1345  1  0.90000000  0.63333333  0.26666667  1
  Na  Na1346  1  0.90000000  0.63333333  0.46666667  1
  Na  Na1347  1  0.90000000  0.63333333  0.66666667  1
  Na  Na1348  1  0.90000000  0.63333333  0.86666667  1
  Na  Na1349  1  0.90000000  0.83333333  0.06666667  1
  Na  Na1350  1  0.90000000  0.83333333  0.26666667  1
  Na  Na1351  1  0.90000000  0.83333333  0.46666667  1
  Na  Na1352  1  0.90000000  0.83333333  0.66666667  1
  Na  Na1353  1  0.90000000  0.83333333  0.86666667  1
  Na  Na1354  1  0.10000000  0.03333333  0.13333333  1
  Na  Na1355  1  0.10000000  0.03333333  0.33333333  1
  Na  Na1356  1  0.10000000  0.03333333  0.53333333  1
  Na  Na1357  1  0.10000000  0.03333333  0.73333333  1
  Na  Na1358  1  0.10000000  0.03333333  0.93333333  1
  Na  Na1359  1  0.10000000  0.23333333  0.13333333  1
  Na  Na1360  1  0.10000000  0.23333333  0.33333333  1
  Na  Na1361  1  0.10000000  0.23333333  0.53333333  1
  Na  Na1362  1  0.10000000  0.23333333  0.73333333  1
  Na  Na1363  1  0.10000000  0.23333333  0.93333333  1
  Na  Na1364  1  0.10000000  0.43333333  0.13333333  1
  Na  Na1365  1  0.10000000  0.43333333  0.33333333  1
  Na  Na1366  1  0.10000000  0.43333333  0.53333333  1
  Na  Na1367  1  0.10000000  0.43333333  0.73333333  1
  Na  Na1368  1  0.10000000  0.43333333  0.93333333  1
  Na  Na1369  1  0.10000000  0.63333333  0.13333333  1
  Na  Na1370  1  0.10000000  0.63333333  0.53333333  1
  Na  Na1371  1  0.10000000  0.63333333  0.73333333  1
  Na  Na1372  1  0.10000000  0.63333333  0.93333333  1
  Na  Na1373  1  0.10000000  0.83333333  0.13333333  1
  Na  Na1374  1  0.10000000  0.83333333  0.33333333  1
  Na  Na1375  1  0.10000000  0.83333333  0.53333333  1
  Na  Na1376  1  0.10000000  0.83333333  0.73333333  1
  Na  Na1377  1  0.10000000  0.83333333  0.93333333  1
  Na  Na1378  1  0.30000000  0.03333333  0.13333333  1
  Na  Na1379  1  0.30000000  0.03333333  0.33333333  1
  Na  Na1380  1  0.30000000  0.03333333  0.53333333  1
  Na  Na1381  1  0.30000000  0.03333333  0.73333333  1
  Na  Na1382  1  0.30000000  0.03333333  0.93333333  1
  Na  Na1383  1  0.30000000  0.23333333  0.13333333  1
  Na  Na1384  1  0.30000000  0.23333333  0.33333333  1
  Na  Na1385  1  0.30000000  0.23333333  0.53333333  1
  Na  Na1386  1  0.30000000  0.23333333  0.73333333  1
  Na  Na1387  1  0.30000000  0.23333333  0.93333333  1
  Na  Na1388  1  0.30000000  0.43333333  0.13333333  1
  Na  Na1389  1  0.30000000  0.43333333  0.33333333  1
  Na  Na1390  1  0.30000000  0.43333333  0.53333333  1
  Na  Na1391  1  0.30000000  0.43333333  0.73333333  1
  Na  Na1392  1  0.30000000  0.43333333  0.93333333  1
  Na  Na1393  1  0.30000000  0.63333333  0.13333333  1
  Na  Na1394  1  0.30000000  0.63333333  0.33333333  1
  Na  Na1395  1  0.30000000  0.63333333  0.53333333  1
  Na  Na1396  1  0.30000000  0.63333333  0.73333333  1
  Na  Na1397  1  0.30000000  0.63333333  0.93333333  1
  Na  Na1398  1  0.30000000  0.83333333  0.13333333  1
  Na  Na1399  1  0.30000000  0.83333333  0.33333333  1
  Na  Na1400  1  0.30000000  0.83333333  0.53333333  1
  Na  Na1401  1  0.30000000  0.83333333  0.73333333  1
  Na  Na1402  1  0.30000000  0.83333333  0.93333333  1
  Na  Na1403  1  0.50000000  0.03333333  0.13333333  1
  Na  Na1404  1  0.50000000  0.03333333  0.33333333  1
  Na  Na1405  1  0.50000000  0.03333333  0.53333333  1
  Na  Na1406  1  0.50000000  0.03333333  0.73333333  1
  Na  Na1407  1  0.50000000  0.03333333  0.93333333  1
  Na  Na1408  1  0.50000000  0.23333333  0.13333333  1
  Na  Na1409  1  0.50000000  0.23333333  0.33333333  1
  Na  Na1410  1  0.50000000  0.23333333  0.53333333  1
  Na  Na1411  1  0.50000000  0.23333333  0.73333333  1
  Na  Na1412  1  0.50000000  0.23333333  0.93333333  1
  Na  Na1413  1  0.50000000  0.43333333  0.13333333  1
  Na  Na1414  1  0.50000000  0.43333333  0.33333333  1
  Na  Na1415  1  0.50000000  0.43333333  0.53333333  1
  Na  Na1416  1  0.50000000  0.43333333  0.73333333  1
  Na  Na1417  1  0.50000000  0.43333333  0.93333333  1
  Na  Na1418  1  0.50000000  0.63333333  0.13333333  1
  Na  Na1419  1  0.50000000  0.63333333  0.33333333  1
  Na  Na1420  1  0.50000000  0.63333333  0.53333333  1
  Na  Na1421  1  0.50000000  0.63333333  0.73333333  1
  Na  Na1422  1  0.50000000  0.63333333  0.93333333  1
  Na  Na1423  1  0.50000000  0.83333333  0.13333333  1
  Na  Na1424  1  0.50000000  0.83333333  0.33333333  1
  Na  Na1425  1  0.50000000  0.83333333  0.53333333  1
  Na  Na1426  1  0.50000000  0.83333333  0.73333333  1
  Na  Na1427  1  0.50000000  0.83333333  0.93333333  1
  Na  Na1428  1  0.70000000  0.03333333  0.13333333  1
  Na  Na1429  1  0.70000000  0.03333333  0.33333333  1
  Na  Na1430  1  0.70000000  0.03333333  0.53333333  1
  Na  Na1431  1  0.70000000  0.03333333  0.73333333  1
  Na  Na1432  1  0.70000000  0.03333333  0.93333333  1
  Na  Na1433  1  0.70000000  0.23333333  0.13333333  1
  Na  Na1434  1  0.70000000  0.23333333  0.33333333  1
  Na  Na1435  1  0.70000000  0.23333333  0.53333333  1
  Na  Na1436  1  0.70000000  0.23333333  0.73333333  1
  Na  Na1437  1  0.70000000  0.23333333  0.93333333  1
  Na  Na1438  1  0.70000000  0.43333333  0.13333333  1
  Na  Na1439  1  0.70000000  0.43333333  0.33333333  1
  Na  Na1440  1  0.70000000  0.43333333  0.53333333  1
  Na  Na1441  1  0.70000000  0.43333333  0.73333333  1
  Na  Na1442  1  0.70000000  0.43333333  0.93333333  1
  Na  Na1443  1  0.70000000  0.63333333  0.13333333  1
  Na  Na1444  1  0.70000000  0.63333333  0.33333333  1
  Na  Na1445  1  0.70000000  0.63333333  0.53333333  1
  Na  Na1446  1  0.70000000  0.63333333  0.73333333  1
  Na  Na1447  1  0.70000000  0.63333333  0.93333333  1
  Na  Na1448  1  0.70000000  0.83333333  0.13333333  1
  Na  Na1449  1  0.70000000  0.83333333  0.33333333  1
  Na  Na1450  1  0.70000000  0.83333333  0.53333333  1
  Na  Na1451  1  0.70000000  0.83333333  0.73333333  1
  Na  Na1452  1  0.70000000  0.83333333  0.93333333  1
  Na  Na1453  1  0.90000000  0.03333333  0.13333333  1
  Na  Na1454  1  0.90000000  0.03333333  0.33333333  1
  Na  Na1455  1  0.90000000  0.03333333  0.53333333  1
  Na  Na1456  1  0.90000000  0.03333333  0.73333333  1
  Na  Na1457  1  0.90000000  0.03333333  0.93333333  1
  Na  Na1458  1  0.90000000  0.23333333  0.13333333  1
  Na  Na1459  1  0.90000000  0.23333333  0.33333333  1
  Na  Na1460  1  0.90000000  0.23333333  0.53333333  1
  Na  Na1461  1  0.90000000  0.23333333  0.73333333  1
  Na  Na1462  1  0.90000000  0.23333333  0.93333333  1
  Na  Na1463  1  0.90000000  0.43333333  0.13333333  1
  Na  Na1464  1  0.90000000  0.43333333  0.33333333  1
  Na  Na1465  1  0.90000000  0.43333333  0.53333333  1
  Na  Na1466  1  0.90000000  0.43333333  0.73333333  1
  Na  Na1467  1  0.90000000  0.43333333  0.93333333  1
  Na  Na1468  1  0.90000000  0.63333333  0.13333333  1
  Na  Na1469  1  0.90000000  0.63333333  0.33333333  1
  Na  Na1470  1  0.90000000  0.63333333  0.53333333  1
  Na  Na1471  1  0.90000000  0.63333333  0.73333333  1
  Na  Na1472  1  0.90000000  0.63333333  0.93333333  1
  Na  Na1473  1  0.90000000  0.83333333  0.13333333  1
  Na  Na1474  1  0.90000000  0.83333333  0.33333333  1
  Na  Na1475  1  0.90000000  0.83333333  0.53333333  1
  Na  Na1476  1  0.90000000  0.83333333  0.73333333  1
  Na  Na1477  1  0.90000000  0.83333333  0.93333333  1
  Na  Na1478  1  0.10000000  0.10000000  0.00000000  1
  Na  Na1479  1  0.10000000  0.10000000  0.20000000  1
  Na  Na1480  1  0.10000000  0.10000000  0.40000000  1
  Na  Na1481  1  0.10000000  0.10000000  0.60000000  1
  Na  Na1482  1  0.10000000  0.10000000  0.80000000  1
  Na  Na1483  1  0.10000000  0.30000000  0.00000000  1
  Na  Na1484  1  0.10000000  0.30000000  0.20000000  1
  Na  Na1485  1  0.10000000  0.30000000  0.40000000  1
  Na  Na1486  1  0.10000000  0.30000000  0.60000000  1
  Na  Na1487  1  0.10000000  0.30000000  0.80000000  1
  Na  Na1488  1  0.10000000  0.50000000  0.00000000  1
  Na  Na1489  1  0.10000000  0.50000000  0.20000000  1
  Na  Na1490  1  0.10000000  0.50000000  0.40000000  1
  Na  Na1491  1  0.10000000  0.50000000  0.60000000  1
  Na  Na1492  1  0.10000000  0.50000000  0.80000000  1
  Na  Na1493  1  0.10000000  0.70000000  0.00000000  1
  Na  Na1494  1  0.10000000  0.70000000  0.20000000  1
  Na  Na1495  1  0.10000000  0.70000000  0.40000000  1
  Na  Na1496  1  0.10000000  0.70000000  0.60000000  1
  Na  Na1497  1  0.10000000  0.70000000  0.80000000  1
  Na  Na1498  1  0.10000000  0.90000000  0.00000000  1
  Na  Na1499  1  0.10000000  0.90000000  0.20000000  1
  Na  Na1500  1  0.10000000  0.90000000  0.40000000  1
  Na  Na1501  1  0.10000000  0.90000000  0.60000000  1
  Na  Na1502  1  0.10000000  0.90000000  0.80000000  1
  Na  Na1503  1  0.30000000  0.10000000  0.00000000  1
  Na  Na1504  1  0.30000000  0.10000000  0.20000000  1
  Na  Na1505  1  0.30000000  0.10000000  0.40000000  1
  Na  Na1506  1  0.30000000  0.10000000  0.60000000  1
  Na  Na1507  1  0.30000000  0.10000000  0.80000000  1
  Na  Na1508  1  0.30000000  0.30000000  0.00000000  1
  Na  Na1509  1  0.30000000  0.30000000  0.20000000  1
  Na  Na1510  1  0.30000000  0.30000000  0.40000000  1
  Na  Na1511  1  0.30000000  0.30000000  0.60000000  1
  Na  Na1512  1  0.30000000  0.30000000  0.80000000  1
  Na  Na1513  1  0.30000000  0.50000000  0.00000000  1
  Na  Na1514  1  0.30000000  0.50000000  0.20000000  1
  Na  Na1515  1  0.30000000  0.50000000  0.40000000  1
  Na  Na1516  1  0.30000000  0.50000000  0.60000000  1
  Na  Na1517  1  0.30000000  0.50000000  0.80000000  1
  Na  Na1518  1  0.30000000  0.70000000  0.00000000  1
  Na  Na1519  1  0.30000000  0.70000000  0.20000000  1
  Na  Na1520  1  0.30000000  0.70000000  0.40000000  1
  Na  Na1521  1  0.30000000  0.70000000  0.60000000  1
  Na  Na1522  1  0.30000000  0.70000000  0.80000000  1
  Na  Na1523  1  0.30000000  0.90000000  0.00000000  1
  Na  Na1524  1  0.30000000  0.90000000  0.20000000  1
  Na  Na1525  1  0.30000000  0.90000000  0.40000000  1
  Na  Na1526  1  0.30000000  0.90000000  0.60000000  1
  Na  Na1527  1  0.30000000  0.90000000  0.80000000  1
  Na  Na1528  1  0.50000000  0.10000000  0.00000000  1
  Na  Na1529  1  0.50000000  0.10000000  0.20000000  1
  Na  Na1530  1  0.50000000  0.10000000  0.40000000  1
  Na  Na1531  1  0.50000000  0.10000000  0.60000000  1
  Na  Na1532  1  0.50000000  0.10000000  0.80000000  1
  Na  Na1533  1  0.50000000  0.30000000  0.00000000  1
  Na  Na1534  1  0.50000000  0.30000000  0.20000000  1
  Na  Na1535  1  0.50000000  0.30000000  0.40000000  1
  Na  Na1536  1  0.50000000  0.30000000  0.60000000  1
  Na  Na1537  1  0.50000000  0.30000000  0.80000000  1
  Na  Na1538  1  0.50000000  0.50000000  0.00000000  1
  Na  Na1539  1  0.50000000  0.50000000  0.20000000  1
  Na  Na1540  1  0.50000000  0.50000000  0.40000000  1
  Na  Na1541  1  0.50000000  0.50000000  0.60000000  1
  Na  Na1542  1  0.50000000  0.50000000  0.80000000  1
  Na  Na1543  1  0.50000000  0.70000000  0.00000000  1
  Na  Na1544  1  0.50000000  0.70000000  0.20000000  1
  Na  Na1545  1  0.50000000  0.70000000  0.40000000  1
  Na  Na1546  1  0.50000000  0.70000000  0.60000000  1
  Na  Na1547  1  0.50000000  0.70000000  0.80000000  1
  Na  Na1548  1  0.50000000  0.90000000  0.00000000  1
  Na  Na1549  1  0.50000000  0.90000000  0.20000000  1
  Na  Na1550  1  0.50000000  0.90000000  0.40000000  1
  Na  Na1551  1  0.50000000  0.90000000  0.60000000  1
  Na  Na1552  1  0.50000000  0.90000000  0.80000000  1
  Na  Na1553  1  0.70000000  0.10000000  0.00000000  1
  Na  Na1554  1  0.70000000  0.10000000  0.20000000  1
  Na  Na1555  1  0.70000000  0.10000000  0.40000000  1
  Na  Na1556  1  0.70000000  0.10000000  0.60000000  1
  Na  Na1557  1  0.70000000  0.10000000  0.80000000  1
  Na  Na1558  1  0.70000000  0.30000000  0.00000000  1
  Na  Na1559  1  0.70000000  0.30000000  0.20000000  1
  Na  Na1560  1  0.70000000  0.30000000  0.40000000  1
  Na  Na1561  1  0.70000000  0.30000000  0.60000000  1
  Na  Na1562  1  0.70000000  0.30000000  0.80000000  1
  Na  Na1563  1  0.70000000  0.50000000  0.20000000  1
  Na  Na1564  1  0.70000000  0.50000000  0.40000000  1
  Na  Na1565  1  0.70000000  0.50000000  0.60000000  1
  Na  Na1566  1  0.70000000  0.70000000  0.00000000  1
  Na  Na1567  1  0.70000000  0.70000000  0.20000000  1
  Na  Na1568  1  0.70000000  0.70000000  0.40000000  1
  Na  Na1569  1  0.70000000  0.70000000  0.60000000  1
  Na  Na1570  1  0.70000000  0.70000000  0.80000000  1
  Na  Na1571  1  0.70000000  0.90000000  0.00000000  1
  Na  Na1572  1  0.70000000  0.90000000  0.20000000  1
  Na  Na1573  1  0.70000000  0.90000000  0.40000000  1
  Na  Na1574  1  0.70000000  0.90000000  0.60000000  1
  Na  Na1575  1  0.70000000  0.90000000  0.80000000  1
  Na  Na1576  1  0.90000000  0.10000000  0.00000000  1
  Na  Na1577  1  0.90000000  0.10000000  0.20000000  1
  Na  Na1578  1  0.90000000  0.10000000  0.40000000  1
  Na  Na1579  1  0.90000000  0.10000000  0.60000000  1
  Na  Na1580  1  0.90000000  0.10000000  0.80000000  1
  Na  Na1581  1  0.90000000  0.30000000  0.00000000  1
  Na  Na1582  1  0.90000000  0.30000000  0.20000000  1
  Na  Na1583  1  0.90000000  0.30000000  0.40000000  1
  Na  Na1584  1  0.90000000  0.30000000  0.60000000  1
  Na  Na1585  1  0.90000000  0.30000000  0.80000000  1
  Na  Na1586  1  0.90000000  0.50000000  0.00000000  1
  Na  Na1587  1  0.90000000  0.50000000  0.20000000  1
  Na  Na1588  1  0.90000000  0.50000000  0.40000000  1
  Na  Na1589  1  0.90000000  0.50000000  0.60000000  1
  Na  Na1590  1  0.90000000  0.50000000  0.80000000  1
  Na  Na1591  1  0.90000000  0.70000000  0.00000000  1
  Na  Na1592  1  0.90000000  0.70000000  0.20000000  1
  Na  Na1593  1  0.90000000  0.70000000  0.40000000  1
  Na  Na1594  1  0.90000000  0.70000000  0.60000000  1
  Na  Na1595  1  0.90000000  0.70000000  0.80000000  1
  Na  Na1596  1  0.90000000  0.90000000  0.00000000  1
  Na  Na1597  1  0.90000000  0.90000000  0.20000000  1
  Na  Na1598  1  0.90000000  0.90000000  0.40000000  1
  Na  Na1599  1  0.90000000  0.90000000  0.60000000  1
  Na  Na1600  1  0.90000000  0.90000000  0.80000000  1
  Na  Na1601  1  0.10000000  0.10000000  0.06666667  1
  Na  Na1602  1  0.10000000  0.10000000  0.26666667  1
  Na  Na1603  1  0.10000000  0.10000000  0.46666667  1
  Na  Na1604  1  0.10000000  0.10000000  0.66666667  1
  Na  Na1605  1  0.10000000  0.10000000  0.86666667  1
  Na  Na1606  1  0.10000000  0.30000000  0.06666667  1
  Na  Na1607  1  0.10000000  0.30000000  0.26666667  1
  Na  Na1608  1  0.10000000  0.30000000  0.46666667  1
  Na  Na1609  1  0.10000000  0.30000000  0.66666667  1
  Na  Na1610  1  0.10000000  0.30000000  0.86666667  1
  Na  Na1611  1  0.10000000  0.50000000  0.06666667  1
  Na  Na1612  1  0.10000000  0.50000000  0.26666667  1
  Na  Na1613  1  0.10000000  0.50000000  0.46666667  1
  Na  Na1614  1  0.10000000  0.50000000  0.66666667  1
  Na  Na1615  1  0.10000000  0.50000000  0.86666667  1
  Na  Na1616  1  0.10000000  0.70000000  0.06666667  1
  Na  Na1617  1  0.10000000  0.70000000  0.26666667  1
  Na  Na1618  1  0.10000000  0.70000000  0.46666667  1
  Na  Na1619  1  0.10000000  0.70000000  0.66666667  1
  Na  Na1620  1  0.10000000  0.70000000  0.86666667  1
  Na  Na1621  1  0.10000000  0.90000000  0.26666667  1
  Na  Na1622  1  0.10000000  0.90000000  0.46666667  1
  Na  Na1623  1  0.10000000  0.90000000  0.66666667  1
  Na  Na1624  1  0.10000000  0.90000000  0.86666667  1
  Na  Na1625  1  0.30000000  0.10000000  0.06666667  1
  Na  Na1626  1  0.30000000  0.10000000  0.26666667  1
  Na  Na1627  1  0.30000000  0.10000000  0.46666667  1
  Na  Na1628  1  0.30000000  0.10000000  0.66666667  1
  Na  Na1629  1  0.30000000  0.10000000  0.86666667  1
  Na  Na1630  1  0.30000000  0.30000000  0.06666667  1
  Na  Na1631  1  0.30000000  0.30000000  0.26666667  1
  Na  Na1632  1  0.30000000  0.30000000  0.46666667  1
  Na  Na1633  1  0.30000000  0.30000000  0.66666667  1
  Na  Na1634  1  0.30000000  0.30000000  0.86666667  1
  Na  Na1635  1  0.30000000  0.50000000  0.06666667  1
  Na  Na1636  1  0.30000000  0.50000000  0.26666667  1
  Na  Na1637  1  0.30000000  0.50000000  0.46666667  1
  Na  Na1638  1  0.30000000  0.50000000  0.66666667  1
  Na  Na1639  1  0.30000000  0.50000000  0.86666667  1
  Na  Na1640  1  0.30000000  0.70000000  0.06666667  1
  Na  Na1641  1  0.30000000  0.70000000  0.26666667  1
  Na  Na1642  1  0.30000000  0.70000000  0.46666667  1
  Na  Na1643  1  0.30000000  0.70000000  0.66666667  1
  Na  Na1644  1  0.30000000  0.70000000  0.86666667  1
  Na  Na1645  1  0.30000000  0.90000000  0.06666667  1
  Na  Na1646  1  0.30000000  0.90000000  0.26666667  1
  Na  Na1647  1  0.30000000  0.90000000  0.46666667  1
  Na  Na1648  1  0.30000000  0.90000000  0.66666667  1
  Na  Na1649  1  0.30000000  0.90000000  0.86666667  1
  Na  Na1650  1  0.50000000  0.10000000  0.06666667  1
  Na  Na1651  1  0.50000000  0.10000000  0.26666667  1
  Na  Na1652  1  0.50000000  0.10000000  0.46666667  1
  Na  Na1653  1  0.50000000  0.10000000  0.66666667  1
  Na  Na1654  1  0.50000000  0.10000000  0.86666667  1
  Na  Na1655  1  0.50000000  0.30000000  0.06666667  1
  Na  Na1656  1  0.50000000  0.30000000  0.26666667  1
  Na  Na1657  1  0.50000000  0.30000000  0.46666667  1
  Na  Na1658  1  0.50000000  0.30000000  0.66666667  1
  Na  Na1659  1  0.50000000  0.30000000  0.86666667  1
  Na  Na1660  1  0.50000000  0.50000000  0.06666667  1
  Na  Na1661  1  0.50000000  0.50000000  0.26666667  1
  Na  Na1662  1  0.50000000  0.50000000  0.46666667  1
  Na  Na1663  1  0.50000000  0.50000000  0.66666667  1
  Na  Na1664  1  0.50000000  0.50000000  0.86666667  1
  Na  Na1665  1  0.50000000  0.70000000  0.06666667  1
  Na  Na1666  1  0.50000000  0.70000000  0.26666667  1
  Na  Na1667  1  0.50000000  0.70000000  0.46666667  1
  Na  Na1668  1  0.50000000  0.70000000  0.66666667  1
  Na  Na1669  1  0.50000000  0.70000000  0.86666667  1
  Na  Na1670  1  0.50000000  0.90000000  0.06666667  1
  Na  Na1671  1  0.50000000  0.90000000  0.26666667  1
  Na  Na1672  1  0.50000000  0.90000000  0.46666667  1
  Na  Na1673  1  0.50000000  0.90000000  0.66666667  1
  Na  Na1674  1  0.50000000  0.90000000  0.86666667  1
  Na  Na1675  1  0.70000000  0.10000000  0.06666667  1
  Na  Na1676  1  0.70000000  0.10000000  0.26666667  1
  Na  Na1677  1  0.70000000  0.10000000  0.46666667  1
  Na  Na1678  1  0.70000000  0.10000000  0.66666667  1
  Na  Na1679  1  0.70000000  0.10000000  0.86666667  1
  Na  Na1680  1  0.70000000  0.30000000  0.06666667  1
  Na  Na1681  1  0.70000000  0.30000000  0.26666667  1
  Na  Na1682  1  0.70000000  0.30000000  0.46666667  1
  Na  Na1683  1  0.70000000  0.30000000  0.66666667  1
  Na  Na1684  1  0.70000000  0.30000000  0.86666667  1
  Na  Na1685  1  0.70000000  0.50000000  0.06666667  1
  Na  Na1686  1  0.70000000  0.50000000  0.26666667  1
  Na  Na1687  1  0.70000000  0.50000000  0.46666667  1
  Na  Na1688  1  0.70000000  0.50000000  0.66666667  1
  Na  Na1689  1  0.70000000  0.50000000  0.86666667  1
  Na  Na1690  1  0.70000000  0.70000000  0.06666667  1
  Na  Na1691  1  0.70000000  0.70000000  0.26666667  1
  Na  Na1692  1  0.70000000  0.70000000  0.46666667  1
  Na  Na1693  1  0.70000000  0.70000000  0.66666667  1
  Na  Na1694  1  0.70000000  0.70000000  0.86666667  1
  Na  Na1695  1  0.70000000  0.90000000  0.06666667  1
  Na  Na1696  1  0.70000000  0.90000000  0.26666667  1
  Na  Na1697  1  0.70000000  0.90000000  0.46666667  1
  Na  Na1698  1  0.70000000  0.90000000  0.66666667  1
  Na  Na1699  1  0.70000000  0.90000000  0.86666667  1
  Na  Na1700  1  0.90000000  0.10000000  0.06666667  1
  Na  Na1701  1  0.90000000  0.10000000  0.26666667  1
  Na  Na1702  1  0.90000000  0.10000000  0.66666667  1
  Na  Na1703  1  0.90000000  0.10000000  0.86666667  1
  Na  Na1704  1  0.90000000  0.30000000  0.06666667  1
  Na  Na1705  1  0.90000000  0.30000000  0.26666667  1
  Na  Na1706  1  0.90000000  0.30000000  0.46666667  1
  Na  Na1707  1  0.90000000  0.30000000  0.66666667  1
  Na  Na1708  1  0.90000000  0.30000000  0.86666667  1
  Na  Na1709  1  0.90000000  0.50000000  0.06666667  1
  Na  Na1710  1  0.90000000  0.50000000  0.26666667  1
  Na  Na1711  1  0.90000000  0.50000000  0.46666667  1
  Na  Na1712  1  0.90000000  0.50000000  0.66666667  1
  Na  Na1713  1  0.90000000  0.50000000  0.86666667  1
  Na  Na1714  1  0.90000000  0.70000000  0.06666667  1
  Na  Na1715  1  0.90000000  0.70000000  0.26666667  1
  Na  Na1716  1  0.90000000  0.70000000  0.46666667  1
  Na  Na1717  1  0.90000000  0.70000000  0.86666667  1
  Na  Na1718  1  0.90000000  0.90000000  0.06666667  1
  Na  Na1719  1  0.90000000  0.90000000  0.26666667  1
  Na  Na1720  1  0.90000000  0.90000000  0.46666667  1
  Na  Na1721  1  0.90000000  0.90000000  0.66666667  1
  Na  Na1722  1  0.90000000  0.90000000  0.86666667  1
  Na  Na1723  1  0.10000000  0.10000000  0.13333333  1
  Na  Na1724  1  0.10000000  0.10000000  0.33333333  1
  Na  Na1725  1  0.10000000  0.10000000  0.53333333  1
  Na  Na1726  1  0.10000000  0.10000000  0.73333333  1
  Na  Na1727  1  0.10000000  0.10000000  0.93333333  1
  Na  Na1728  1  0.10000000  0.30000000  0.13333333  1
  Na  Na1729  1  0.10000000  0.30000000  0.33333333  1
  Na  Na1730  1  0.10000000  0.30000000  0.53333333  1
  Na  Na1731  1  0.10000000  0.30000000  0.73333333  1
  Na  Na1732  1  0.10000000  0.30000000  0.93333333  1
  Na  Na1733  1  0.10000000  0.50000000  0.13333333  1
  Na  Na1734  1  0.10000000  0.50000000  0.33333333  1
  Na  Na1735  1  0.10000000  0.50000000  0.53333333  1
  Na  Na1736  1  0.10000000  0.50000000  0.73333333  1
  Na  Na1737  1  0.10000000  0.50000000  0.93333333  1
  Na  Na1738  1  0.10000000  0.70000000  0.13333333  1
  Na  Na1739  1  0.10000000  0.70000000  0.33333333  1
  Na  Na1740  1  0.10000000  0.70000000  0.53333333  1
  Na  Na1741  1  0.10000000  0.70000000  0.73333333  1
  Na  Na1742  1  0.10000000  0.70000000  0.93333333  1
  Na  Na1743  1  0.10000000  0.90000000  0.13333333  1
  Na  Na1744  1  0.10000000  0.90000000  0.33333333  1
  Na  Na1745  1  0.10000000  0.90000000  0.53333333  1
  Na  Na1746  1  0.10000000  0.90000000  0.73333333  1
  Na  Na1747  1  0.10000000  0.90000000  0.93333333  1
  Na  Na1748  1  0.30000000  0.10000000  0.13333333  1
  Na  Na1749  1  0.30000000  0.10000000  0.33333333  1
  Na  Na1750  1  0.30000000  0.10000000  0.53333333  1
  Na  Na1751  1  0.30000000  0.10000000  0.73333333  1
  Na  Na1752  1  0.30000000  0.10000000  0.93333333  1
  Na  Na1753  1  0.30000000  0.30000000  0.13333333  1
  Na  Na1754  1  0.30000000  0.30000000  0.33333333  1
  Na  Na1755  1  0.30000000  0.30000000  0.53333333  1
  Na  Na1756  1  0.30000000  0.30000000  0.73333333  1
  Na  Na1757  1  0.30000000  0.30000000  0.93333333  1
  Na  Na1758  1  0.30000000  0.50000000  0.13333333  1
  Na  Na1759  1  0.30000000  0.50000000  0.33333333  1
  Na  Na1760  1  0.30000000  0.50000000  0.53333333  1
  Na  Na1761  1  0.30000000  0.50000000  0.73333333  1
  Na  Na1762  1  0.30000000  0.50000000  0.93333333  1
  Na  Na1763  1  0.30000000  0.70000000  0.13333333  1
  Na  Na1764  1  0.30000000  0.70000000  0.33333333  1
  Na  Na1765  1  0.30000000  0.70000000  0.53333333  1
  Na  Na1766  1  0.30000000  0.70000000  0.73333333  1
  Na  Na1767  1  0.30000000  0.70000000  0.93333333  1
  Na  Na1768  1  0.30000000  0.90000000  0.13333333  1
  Na  Na1769  1  0.30000000  0.90000000  0.33333333  1
  Na  Na1770  1  0.30000000  0.90000000  0.53333333  1
  Na  Na1771  1  0.30000000  0.90000000  0.73333333  1
  Na  Na1772  1  0.30000000  0.90000000  0.93333333  1
  Na  Na1773  1  0.50000000  0.10000000  0.13333333  1
  Na  Na1774  1  0.50000000  0.10000000  0.33333333  1
  Na  Na1775  1  0.50000000  0.10000000  0.53333333  1
  Na  Na1776  1  0.50000000  0.10000000  0.73333333  1
  Na  Na1777  1  0.50000000  0.10000000  0.93333333  1
  Na  Na1778  1  0.50000000  0.30000000  0.13333333  1
  Na  Na1779  1  0.50000000  0.30000000  0.33333333  1
  Na  Na1780  1  0.50000000  0.30000000  0.53333333  1
  Na  Na1781  1  0.50000000  0.30000000  0.73333333  1
  Na  Na1782  1  0.50000000  0.30000000  0.93333333  1
  Na  Na1783  1  0.50000000  0.50000000  0.13333333  1
  Na  Na1784  1  0.50000000  0.50000000  0.33333333  1
  Na  Na1785  1  0.50000000  0.50000000  0.53333333  1
  Na  Na1786  1  0.50000000  0.50000000  0.73333333  1
  Na  Na1787  1  0.50000000  0.50000000  0.93333333  1
  Na  Na1788  1  0.50000000  0.70000000  0.13333333  1
  Na  Na1789  1  0.50000000  0.70000000  0.33333333  1
  Na  Na1790  1  0.50000000  0.70000000  0.53333333  1
  Na  Na1791  1  0.50000000  0.70000000  0.73333333  1
  Na  Na1792  1  0.50000000  0.70000000  0.93333333  1
  Na  Na1793  1  0.50000000  0.90000000  0.13333333  1
  Na  Na1794  1  0.50000000  0.90000000  0.33333333  1
  Na  Na1795  1  0.50000000  0.90000000  0.53333333  1
  Na  Na1796  1  0.50000000  0.90000000  0.73333333  1
  Na  Na1797  1  0.50000000  0.90000000  0.93333333  1
  Na  Na1798  1  0.70000000  0.10000000  0.13333333  1
  Na  Na1799  1  0.70000000  0.10000000  0.33333333  1
  Na  Na1800  1  0.70000000  0.10000000  0.53333333  1
  Na  Na1801  1  0.70000000  0.10000000  0.73333333  1
  Na  Na1802  1  0.70000000  0.30000000  0.13333333  1
  Na  Na1803  1  0.70000000  0.30000000  0.33333333  1
  Na  Na1804  1  0.70000000  0.30000000  0.53333333  1
  Na  Na1805  1  0.70000000  0.30000000  0.73333333  1
  Na  Na1806  1  0.70000000  0.30000000  0.93333333  1
  Na  Na1807  1  0.70000000  0.50000000  0.13333333  1
  Na  Na1808  1  0.70000000  0.50000000  0.33333333  1
  Na  Na1809  1  0.70000000  0.50000000  0.53333333  1
  Na  Na1810  1  0.70000000  0.50000000  0.73333333  1
  Na  Na1811  1  0.70000000  0.50000000  0.93333333  1
  Na  Na1812  1  0.70000000  0.70000000  0.13333333  1
  Na  Na1813  1  0.70000000  0.70000000  0.33333333  1
  Na  Na1814  1  0.70000000  0.70000000  0.73333333  1
  Na  Na1815  1  0.70000000  0.70000000  0.93333333  1
  Na  Na1816  1  0.70000000  0.90000000  0.13333333  1
  Na  Na1817  1  0.70000000  0.90000000  0.33333333  1
  Na  Na1818  1  0.70000000  0.90000000  0.53333333  1
  Na  Na1819  1  0.70000000  0.90000000  0.73333333  1
  Na  Na1820  1  0.70000000  0.90000000  0.93333333  1
  Na  Na1821  1  0.90000000  0.10000000  0.13333333  1
  Na  Na1822  1  0.90000000  0.10000000  0.33333333  1
  Na  Na1823  1  0.90000000  0.10000000  0.53333333  1
  Na  Na1824  1  0.90000000  0.10000000  0.73333333  1
  Na  Na1825  1  0.90000000  0.10000000  0.93333333  1
  Na  Na1826  1  0.90000000  0.30000000  0.13333333  1
  Na  Na1827  1  0.90000000  0.30000000  0.33333333  1
  Na  Na1828  1  0.90000000  0.30000000  0.53333333  1
  Na  Na1829  1  0.90000000  0.30000000  0.73333333  1
  Na  Na1830  1  0.90000000  0.30000000  0.93333333  1
  Na  Na1831  1  0.90000000  0.50000000  0.13333333  1
  Na  Na1832  1  0.90000000  0.50000000  0.33333333  1
  Na  Na1833  1  0.90000000  0.50000000  0.53333333  1
  Na  Na1834  1  0.90000000  0.50000000  0.73333333  1
  Na  Na1835  1  0.90000000  0.50000000  0.93333333  1
  Na  Na1836  1  0.90000000  0.70000000  0.13333333  1
  Na  Na1837  1  0.90000000  0.70000000  0.33333333  1
  Na  Na1838  1  0.90000000  0.70000000  0.53333333  1
  Na  Na1839  1  0.90000000  0.70000000  0.73333333  1
  Na  Na1840  1  0.90000000  0.70000000  0.93333333  1
  Na  Na1841  1  0.90000000  0.90000000  0.13333333  1
  Na  Na1842  1  0.90000000  0.90000000  0.33333333  1
  Na  Na1843  1  0.90000000  0.90000000  0.53333333  1
  Na  Na1844  1  0.90000000  0.90000000  0.73333333  1
  Na  Na1845  1  0.90000000  0.90000000  0.93333333  1
  Na  Na1846  1  0.10000000  0.16666667  0.00000000  1
  Na  Na1847  1  0.10000000  0.16666667  0.20000000  1
  Na  Na1848  1  0.10000000  0.16666667  0.40000000  1
  Na  Na1849  1  0.10000000  0.16666667  0.60000000  1
  Na  Na1850  1  0.10000000  0.16666667  0.80000000  1
  Na  Na1851  1  0.10000000  0.36666667  0.00000000  1
  Na  Na1852  1  0.10000000  0.36666667  0.20000000  1
  Na  Na1853  1  0.10000000  0.36666667  0.40000000  1
  Na  Na1854  1  0.10000000  0.36666667  0.60000000  1
  Na  Na1855  1  0.10000000  0.36666667  0.80000000  1
  Na  Na1856  1  0.10000000  0.56666667  0.00000000  1
  Na  Na1857  1  0.10000000  0.56666667  0.20000000  1
  Na  Na1858  1  0.10000000  0.56666667  0.40000000  1
  Na  Na1859  1  0.10000000  0.56666667  0.60000000  1
  Na  Na1860  1  0.10000000  0.56666667  0.80000000  1
  Na  Na1861  1  0.10000000  0.76666667  0.00000000  1
  Na  Na1862  1  0.10000000  0.76666667  0.20000000  1
  Na  Na1863  1  0.10000000  0.76666667  0.40000000  1
  Na  Na1864  1  0.10000000  0.76666667  0.60000000  1
  Na  Na1865  1  0.10000000  0.76666667  0.80000000  1
  Na  Na1866  1  0.10000000  0.96666667  0.00000000  1
  Na  Na1867  1  0.10000000  0.96666667  0.20000000  1
  Na  Na1868  1  0.10000000  0.96666667  0.40000000  1
  Na  Na1869  1  0.10000000  0.96666667  0.60000000  1
  Na  Na1870  1  0.10000000  0.96666667  0.80000000  1
  Na  Na1871  1  0.30000000  0.16666667  0.00000000  1
  Na  Na1872  1  0.30000000  0.16666667  0.20000000  1
  Na  Na1873  1  0.30000000  0.16666667  0.40000000  1
  Na  Na1874  1  0.30000000  0.16666667  0.60000000  1
  Na  Na1875  1  0.30000000  0.16666667  0.80000000  1
  Na  Na1876  1  0.30000000  0.36666667  0.00000000  1
  Na  Na1877  1  0.30000000  0.36666667  0.20000000  1
  Na  Na1878  1  0.30000000  0.36666667  0.40000000  1
  Na  Na1879  1  0.30000000  0.36666667  0.60000000  1
  Na  Na1880  1  0.30000000  0.36666667  0.80000000  1
  Na  Na1881  1  0.30000000  0.56666667  0.00000000  1
  Na  Na1882  1  0.30000000  0.56666667  0.20000000  1
  Na  Na1883  1  0.30000000  0.56666667  0.40000000  1
  Na  Na1884  1  0.30000000  0.56666667  0.60000000  1
  Na  Na1885  1  0.30000000  0.56666667  0.80000000  1
  Na  Na1886  1  0.30000000  0.76666667  0.00000000  1
  Na  Na1887  1  0.30000000  0.76666667  0.20000000  1
  Na  Na1888  1  0.30000000  0.76666667  0.40000000  1
  Na  Na1889  1  0.30000000  0.76666667  0.60000000  1
  Na  Na1890  1  0.30000000  0.76666667  0.80000000  1
  Na  Na1891  1  0.30000000  0.96666667  0.00000000  1
  Na  Na1892  1  0.30000000  0.96666667  0.20000000  1
  Na  Na1893  1  0.30000000  0.96666667  0.40000000  1
  Na  Na1894  1  0.30000000  0.96666667  0.60000000  1
  Na  Na1895  1  0.30000000  0.96666667  0.80000000  1
  Na  Na1896  1  0.50000000  0.16666667  0.00000000  1
  Na  Na1897  1  0.50000000  0.16666667  0.20000000  1
  Na  Na1898  1  0.50000000  0.16666667  0.40000000  1
  Na  Na1899  1  0.50000000  0.16666667  0.60000000  1
  Na  Na1900  1  0.50000000  0.16666667  0.80000000  1
  Na  Na1901  1  0.50000000  0.36666667  0.00000000  1
  Na  Na1902  1  0.50000000  0.36666667  0.20000000  1
  Na  Na1903  1  0.50000000  0.36666667  0.40000000  1
  Na  Na1904  1  0.50000000  0.36666667  0.60000000  1
  Na  Na1905  1  0.50000000  0.36666667  0.80000000  1
  Na  Na1906  1  0.50000000  0.56666667  0.00000000  1
  Na  Na1907  1  0.50000000  0.56666667  0.20000000  1
  Na  Na1908  1  0.50000000  0.56666667  0.40000000  1
  Na  Na1909  1  0.50000000  0.56666667  0.60000000  1
  Na  Na1910  1  0.50000000  0.56666667  0.80000000  1
  Na  Na1911  1  0.50000000  0.76666667  0.00000000  1
  Na  Na1912  1  0.50000000  0.76666667  0.20000000  1
  Na  Na1913  1  0.50000000  0.76666667  0.40000000  1
  Na  Na1914  1  0.50000000  0.76666667  0.80000000  1
  Na  Na1915  1  0.50000000  0.96666667  0.00000000  1
  Na  Na1916  1  0.50000000  0.96666667  0.20000000  1
  Na  Na1917  1  0.50000000  0.96666667  0.40000000  1
  Na  Na1918  1  0.50000000  0.96666667  0.60000000  1
  Na  Na1919  1  0.50000000  0.96666667  0.80000000  1
  Na  Na1920  1  0.70000000  0.16666667  0.00000000  1
  Na  Na1921  1  0.70000000  0.16666667  0.20000000  1
  Na  Na1922  1  0.70000000  0.16666667  0.40000000  1
  Na  Na1923  1  0.70000000  0.16666667  0.60000000  1
  Na  Na1924  1  0.70000000  0.16666667  0.80000000  1
  Na  Na1925  1  0.70000000  0.36666667  0.00000000  1
  Na  Na1926  1  0.70000000  0.36666667  0.20000000  1
  Na  Na1927  1  0.70000000  0.36666667  0.40000000  1
  Na  Na1928  1  0.70000000  0.36666667  0.60000000  1
  Na  Na1929  1  0.70000000  0.36666667  0.80000000  1
  Na  Na1930  1  0.70000000  0.56666667  0.00000000  1
  Na  Na1931  1  0.70000000  0.56666667  0.20000000  1
  Na  Na1932  1  0.70000000  0.56666667  0.40000000  1
  Na  Na1933  1  0.70000000  0.56666667  0.60000000  1
  Na  Na1934  1  0.70000000  0.56666667  0.80000000  1
  Na  Na1935  1  0.70000000  0.76666667  0.00000000  1
  Na  Na1936  1  0.70000000  0.76666667  0.20000000  1
  Na  Na1937  1  0.70000000  0.76666667  0.40000000  1
  Na  Na1938  1  0.70000000  0.76666667  0.60000000  1
  Na  Na1939  1  0.70000000  0.76666667  0.80000000  1
  Na  Na1940  1  0.70000000  0.96666667  0.00000000  1
  Na  Na1941  1  0.70000000  0.96666667  0.20000000  1
  Na  Na1942  1  0.70000000  0.96666667  0.40000000  1
  Na  Na1943  1  0.70000000  0.96666667  0.60000000  1
  Na  Na1944  1  0.70000000  0.96666667  0.80000000  1
  Na  Na1945  1  0.90000000  0.16666667  0.00000000  1
  Na  Na1946  1  0.90000000  0.16666667  0.20000000  1
  Na  Na1947  1  0.90000000  0.16666667  0.40000000  1
  Na  Na1948  1  0.90000000  0.16666667  0.60000000  1
  Na  Na1949  1  0.90000000  0.16666667  0.80000000  1
  Na  Na1950  1  0.90000000  0.36666667  0.00000000  1
  Na  Na1951  1  0.90000000  0.36666667  0.20000000  1
  Na  Na1952  1  0.90000000  0.36666667  0.40000000  1
  Na  Na1953  1  0.90000000  0.36666667  0.60000000  1
  Na  Na1954  1  0.90000000  0.36666667  0.80000000  1
  Na  Na1955  1  0.90000000  0.56666667  0.00000000  1
  Na  Na1956  1  0.90000000  0.56666667  0.20000000  1
  Na  Na1957  1  0.90000000  0.56666667  0.40000000  1
  Na  Na1958  1  0.90000000  0.56666667  0.60000000  1
  Na  Na1959  1  0.90000000  0.56666667  0.80000000  1
  Na  Na1960  1  0.90000000  0.76666667  0.00000000  1
  Na  Na1961  1  0.90000000  0.76666667  0.20000000  1
  Na  Na1962  1  0.90000000  0.76666667  0.40000000  1
  Na  Na1963  1  0.90000000  0.76666667  0.60000000  1
  Na  Na1964  1  0.90000000  0.76666667  0.80000000  1
  Na  Na1965  1  0.90000000  0.96666667  0.00000000  1
  Na  Na1966  1  0.90000000  0.96666667  0.20000000  1
  Na  Na1967  1  0.90000000  0.96666667  0.40000000  1
  Na  Na1968  1  0.90000000  0.96666667  0.60000000  1
  Na  Na1969  1  0.90000000  0.96666667  0.80000000  1
  Na  Na1970  1  0.10000000  0.16666667  0.06666667  1
  Na  Na1971  1  0.10000000  0.16666667  0.26666667  1
  Na  Na1972  1  0.10000000  0.16666667  0.46666667  1
  Na  Na1973  1  0.10000000  0.16666667  0.66666667  1
  Na  Na1974  1  0.10000000  0.16666667  0.86666667  1
  Na  Na1975  1  0.10000000  0.36666667  0.06666667  1
  Na  Na1976  1  0.10000000  0.36666667  0.26666667  1
  Na  Na1977  1  0.10000000  0.36666667  0.46666667  1
  Na  Na1978  1  0.10000000  0.36666667  0.66666667  1
  Na  Na1979  1  0.10000000  0.36666667  0.86666667  1
  Na  Na1980  1  0.10000000  0.56666667  0.06666667  1
  Na  Na1981  1  0.10000000  0.56666667  0.26666667  1
  Na  Na1982  1  0.10000000  0.56666667  0.46666667  1
  Na  Na1983  1  0.10000000  0.56666667  0.66666667  1
  Na  Na1984  1  0.10000000  0.56666667  0.86666667  1
  Na  Na1985  1  0.10000000  0.76666667  0.06666667  1
  Na  Na1986  1  0.10000000  0.76666667  0.26666667  1
  Na  Na1987  1  0.10000000  0.76666667  0.46666667  1
  Na  Na1988  1  0.10000000  0.76666667  0.66666667  1
  Na  Na1989  1  0.10000000  0.76666667  0.86666667  1
  Na  Na1990  1  0.10000000  0.96666667  0.06666667  1
  Na  Na1991  1  0.10000000  0.96666667  0.26666667  1
  Na  Na1992  1  0.10000000  0.96666667  0.66666667  1
  Na  Na1993  1  0.10000000  0.96666667  0.86666667  1
  Na  Na1994  1  0.30000000  0.16666667  0.06666667  1
  Na  Na1995  1  0.30000000  0.16666667  0.26666667  1
  Na  Na1996  1  0.30000000  0.16666667  0.46666667  1
  Na  Na1997  1  0.30000000  0.16666667  0.66666667  1
  Na  Na1998  1  0.30000000  0.16666667  0.86666667  1
  Na  Na1999  1  0.30000000  0.36666667  0.06666667  1
  Na  Na2000  1  0.30000000  0.36666667  0.26666667  1
  Na  Na2001  1  0.30000000  0.36666667  0.46666667  1
  Na  Na2002  1  0.30000000  0.36666667  0.86666667  1
  Na  Na2003  1  0.30000000  0.56666667  0.06666667  1
  Na  Na2004  1  0.30000000  0.56666667  0.26666667  1
  Na  Na2005  1  0.30000000  0.56666667  0.46666667  1
  Na  Na2006  1  0.30000000  0.56666667  0.66666667  1
  Na  Na2007  1  0.30000000  0.56666667  0.86666667  1
  Na  Na2008  1  0.30000000  0.76666667  0.06666667  1
  Na  Na2009  1  0.30000000  0.76666667  0.26666667  1
  Na  Na2010  1  0.30000000  0.76666667  0.46666667  1
  Na  Na2011  1  0.30000000  0.76666667  0.66666667  1
  Na  Na2012  1  0.30000000  0.76666667  0.86666667  1
  Na  Na2013  1  0.30000000  0.96666667  0.06666667  1
  Na  Na2014  1  0.30000000  0.96666667  0.26666667  1
  Na  Na2015  1  0.30000000  0.96666667  0.46666667  1
  Na  Na2016  1  0.30000000  0.96666667  0.66666667  1
  Na  Na2017  1  0.30000000  0.96666667  0.86666667  1
  Na  Na2018  1  0.50000000  0.16666667  0.06666667  1
  Na  Na2019  1  0.50000000  0.16666667  0.26666667  1
  Na  Na2020  1  0.50000000  0.16666667  0.46666667  1
  Na  Na2021  1  0.50000000  0.16666667  0.66666667  1
  Na  Na2022  1  0.50000000  0.16666667  0.86666667  1
  Na  Na2023  1  0.50000000  0.36666667  0.06666667  1
  Na  Na2024  1  0.50000000  0.36666667  0.26666667  1
  Na  Na2025  1  0.50000000  0.36666667  0.46666667  1
  Na  Na2026  1  0.50000000  0.36666667  0.66666667  1
  Na  Na2027  1  0.50000000  0.36666667  0.86666667  1
  Na  Na2028  1  0.50000000  0.56666667  0.06666667  1
  Na  Na2029  1  0.50000000  0.56666667  0.26666667  1
  Na  Na2030  1  0.50000000  0.56666667  0.46666667  1
  Na  Na2031  1  0.50000000  0.56666667  0.66666667  1
  Na  Na2032  1  0.50000000  0.56666667  0.86666667  1
  Na  Na2033  1  0.50000000  0.76666667  0.06666667  1
  Na  Na2034  1  0.50000000  0.76666667  0.26666667  1
  Na  Na2035  1  0.50000000  0.76666667  0.46666667  1
  Na  Na2036  1  0.50000000  0.76666667  0.66666667  1
  Na  Na2037  1  0.50000000  0.76666667  0.86666667  1
  Na  Na2038  1  0.50000000  0.96666667  0.06666667  1
  Na  Na2039  1  0.50000000  0.96666667  0.26666667  1
  Na  Na2040  1  0.50000000  0.96666667  0.46666667  1
  Na  Na2041  1  0.50000000  0.96666667  0.66666667  1
  Na  Na2042  1  0.50000000  0.96666667  0.86666667  1
  Na  Na2043  1  0.70000000  0.16666667  0.06666667  1
  Na  Na2044  1  0.70000000  0.16666667  0.26666667  1
  Na  Na2045  1  0.70000000  0.16666667  0.46666667  1
  Na  Na2046  1  0.70000000  0.16666667  0.66666667  1
  Na  Na2047  1  0.70000000  0.16666667  0.86666667  1
  Na  Na2048  1  0.70000000  0.36666667  0.06666667  1
  Na  Na2049  1  0.70000000  0.36666667  0.26666667  1
  Na  Na2050  1  0.70000000  0.36666667  0.46666667  1
  Na  Na2051  1  0.70000000  0.36666667  0.66666667  1
  Na  Na2052  1  0.70000000  0.36666667  0.86666667  1
  Na  Na2053  1  0.70000000  0.56666667  0.06666667  1
  Na  Na2054  1  0.70000000  0.56666667  0.26666667  1
  Na  Na2055  1  0.70000000  0.56666667  0.46666667  1
  Na  Na2056  1  0.70000000  0.56666667  0.66666667  1
  Na  Na2057  1  0.70000000  0.56666667  0.86666667  1
  Na  Na2058  1  0.70000000  0.76666667  0.06666667  1
  Na  Na2059  1  0.70000000  0.76666667  0.26666667  1
  Na  Na2060  1  0.70000000  0.76666667  0.46666667  1
  Na  Na2061  1  0.70000000  0.76666667  0.66666667  1
  Na  Na2062  1  0.70000000  0.76666667  0.86666667  1
  Na  Na2063  1  0.70000000  0.96666667  0.06666667  1
  Na  Na2064  1  0.70000000  0.96666667  0.26666667  1
  Na  Na2065  1  0.70000000  0.96666667  0.46666667  1
  Na  Na2066  1  0.70000000  0.96666667  0.66666667  1
  Na  Na2067  1  0.70000000  0.96666667  0.86666667  1
  Na  Na2068  1  0.90000000  0.16666667  0.06666667  1
  Na  Na2069  1  0.90000000  0.16666667  0.26666667  1
  Na  Na2070  1  0.90000000  0.16666667  0.46666667  1
  Na  Na2071  1  0.90000000  0.16666667  0.66666667  1
  Na  Na2072  1  0.90000000  0.16666667  0.86666667  1
  Na  Na2073  1  0.90000000  0.36666667  0.06666667  1
  Na  Na2074  1  0.90000000  0.36666667  0.26666667  1
  Na  Na2075  1  0.90000000  0.36666667  0.46666667  1
  Na  Na2076  1  0.90000000  0.36666667  0.66666667  1
  Na  Na2077  1  0.90000000  0.36666667  0.86666667  1
  Na  Na2078  1  0.90000000  0.56666667  0.06666667  1
  Na  Na2079  1  0.90000000  0.56666667  0.26666667  1
  Na  Na2080  1  0.90000000  0.56666667  0.46666667  1
  Na  Na2081  1  0.90000000  0.56666667  0.66666667  1
  Na  Na2082  1  0.90000000  0.56666667  0.86666667  1
  Na  Na2083  1  0.90000000  0.76666667  0.06666667  1
  Na  Na2084  1  0.90000000  0.76666667  0.26666667  1
  Na  Na2085  1  0.90000000  0.76666667  0.46666667  1
  Na  Na2086  1  0.90000000  0.76666667  0.66666667  1
  Na  Na2087  1  0.90000000  0.76666667  0.86666667  1
  Na  Na2088  1  0.90000000  0.96666667  0.06666667  1
  Na  Na2089  1  0.90000000  0.96666667  0.26666667  1
  Na  Na2090  1  0.90000000  0.96666667  0.46666667  1
  Na  Na2091  1  0.90000000  0.96666667  0.66666667  1
  Na  Na2092  1  0.90000000  0.96666667  0.86666667  1
  Na  Na2093  1  0.10000000  0.16666667  0.13333333  1
  Na  Na2094  1  0.10000000  0.16666667  0.33333333  1
  Na  Na2095  1  0.10000000  0.16666667  0.53333333  1
  Na  Na2096  1  0.10000000  0.16666667  0.73333333  1
  Na  Na2097  1  0.10000000  0.16666667  0.93333333  1
  Na  Na2098  1  0.10000000  0.36666667  0.13333333  1
  Na  Na2099  1  0.10000000  0.36666667  0.33333333  1
  Na  Na2100  1  0.10000000  0.36666667  0.53333333  1
  Na  Na2101  1  0.10000000  0.36666667  0.73333333  1
  Na  Na2102  1  0.10000000  0.36666667  0.93333333  1
  Na  Na2103  1  0.10000000  0.56666667  0.13333333  1
  Na  Na2104  1  0.10000000  0.56666667  0.33333333  1
  Na  Na2105  1  0.10000000  0.56666667  0.53333333  1
  Na  Na2106  1  0.10000000  0.56666667  0.73333333  1
  Na  Na2107  1  0.10000000  0.56666667  0.93333333  1
  Na  Na2108  1  0.10000000  0.76666667  0.13333333  1
  Na  Na2109  1  0.10000000  0.76666667  0.33333333  1
  Na  Na2110  1  0.10000000  0.76666667  0.53333333  1
  Na  Na2111  1  0.10000000  0.76666667  0.73333333  1
  Na  Na2112  1  0.10000000  0.76666667  0.93333333  1
  Na  Na2113  1  0.10000000  0.96666667  0.13333333  1
  Na  Na2114  1  0.10000000  0.96666667  0.33333333  1
  Na  Na2115  1  0.10000000  0.96666667  0.53333333  1
  Na  Na2116  1  0.10000000  0.96666667  0.73333333  1
  Na  Na2117  1  0.10000000  0.96666667  0.93333333  1
  Na  Na2118  1  0.30000000  0.16666667  0.13333333  1
  Na  Na2119  1  0.30000000  0.16666667  0.33333333  1
  Na  Na2120  1  0.30000000  0.16666667  0.53333333  1
  Na  Na2121  1  0.30000000  0.16666667  0.73333333  1
  Na  Na2122  1  0.30000000  0.16666667  0.93333333  1
  Na  Na2123  1  0.30000000  0.36666667  0.13333333  1
  Na  Na2124  1  0.30000000  0.36666667  0.53333333  1
  Na  Na2125  1  0.30000000  0.36666667  0.73333333  1
  Na  Na2126  1  0.30000000  0.36666667  0.93333333  1
  Na  Na2127  1  0.30000000  0.56666667  0.13333333  1
  Na  Na2128  1  0.30000000  0.56666667  0.33333333  1
  Na  Na2129  1  0.30000000  0.56666667  0.53333333  1
  Na  Na2130  1  0.30000000  0.56666667  0.73333333  1
  Na  Na2131  1  0.30000000  0.56666667  0.93333333  1
  Na  Na2132  1  0.30000000  0.76666667  0.13333333  1
  Na  Na2133  1  0.30000000  0.76666667  0.33333333  1
  Na  Na2134  1  0.30000000  0.76666667  0.53333333  1
  Na  Na2135  1  0.30000000  0.76666667  0.73333333  1
  Na  Na2136  1  0.30000000  0.76666667  0.93333333  1
  Na  Na2137  1  0.30000000  0.96666667  0.13333333  1
  Na  Na2138  1  0.30000000  0.96666667  0.33333333  1
  Na  Na2139  1  0.30000000  0.96666667  0.53333333  1
  Na  Na2140  1  0.30000000  0.96666667  0.73333333  1
  Na  Na2141  1  0.30000000  0.96666667  0.93333333  1
  Na  Na2142  1  0.50000000  0.16666667  0.13333333  1
  Na  Na2143  1  0.50000000  0.16666667  0.33333333  1
  Na  Na2144  1  0.50000000  0.16666667  0.53333333  1
  Na  Na2145  1  0.50000000  0.16666667  0.73333333  1
  Na  Na2146  1  0.50000000  0.16666667  0.93333333  1
  Na  Na2147  1  0.50000000  0.36666667  0.13333333  1
  Na  Na2148  1  0.50000000  0.36666667  0.33333333  1
  Na  Na2149  1  0.50000000  0.36666667  0.53333333  1
  Na  Na2150  1  0.50000000  0.36666667  0.73333333  1
  Na  Na2151  1  0.50000000  0.36666667  0.93333333  1
  Na  Na2152  1  0.50000000  0.56666667  0.13333333  1
  Na  Na2153  1  0.50000000  0.56666667  0.33333333  1
  Na  Na2154  1  0.50000000  0.56666667  0.53333333  1
  Na  Na2155  1  0.50000000  0.56666667  0.73333333  1
  Na  Na2156  1  0.50000000  0.56666667  0.93333333  1
  Na  Na2157  1  0.50000000  0.76666667  0.13333333  1
  Na  Na2158  1  0.50000000  0.76666667  0.33333333  1
  Na  Na2159  1  0.50000000  0.76666667  0.53333333  1
  Na  Na2160  1  0.50000000  0.76666667  0.73333333  1
  Na  Na2161  1  0.50000000  0.76666667  0.93333333  1
  Na  Na2162  1  0.50000000  0.96666667  0.13333333  1
  Na  Na2163  1  0.50000000  0.96666667  0.33333333  1
  Na  Na2164  1  0.50000000  0.96666667  0.53333333  1
  Na  Na2165  1  0.50000000  0.96666667  0.73333333  1
  Na  Na2166  1  0.50000000  0.96666667  0.93333333  1
  Na  Na2167  1  0.70000000  0.16666667  0.13333333  1
  Na  Na2168  1  0.70000000  0.16666667  0.33333333  1
  Na  Na2169  1  0.70000000  0.16666667  0.53333333  1
  Na  Na2170  1  0.70000000  0.16666667  0.73333333  1
  Na  Na2171  1  0.70000000  0.16666667  0.93333333  1
  Na  Na2172  1  0.70000000  0.36666667  0.13333333  1
  Na  Na2173  1  0.70000000  0.36666667  0.33333333  1
  Na  Na2174  1  0.70000000  0.36666667  0.53333333  1
  Na  Na2175  1  0.70000000  0.36666667  0.73333333  1
  Na  Na2176  1  0.70000000  0.36666667  0.93333333  1
  Na  Na2177  1  0.70000000  0.56666667  0.13333333  1
  Na  Na2178  1  0.70000000  0.56666667  0.33333333  1
  Na  Na2179  1  0.70000000  0.56666667  0.53333333  1
  Na  Na2180  1  0.70000000  0.56666667  0.73333333  1
  Na  Na2181  1  0.70000000  0.56666667  0.93333333  1
  Na  Na2182  1  0.70000000  0.76666667  0.13333333  1
  Na  Na2183  1  0.70000000  0.76666667  0.33333333  1
  Na  Na2184  1  0.70000000  0.76666667  0.53333333  1
  Na  Na2185  1  0.70000000  0.76666667  0.73333333  1
  Na  Na2186  1  0.70000000  0.76666667  0.93333333  1
  Na  Na2187  1  0.70000000  0.96666667  0.13333333  1
  Na  Na2188  1  0.70000000  0.96666667  0.33333333  1
  Na  Na2189  1  0.70000000  0.96666667  0.53333333  1
  Na  Na2190  1  0.70000000  0.96666667  0.73333333  1
  Na  Na2191  1  0.70000000  0.96666667  0.93333333  1
  Na  Na2192  1  0.90000000  0.16666667  0.13333333  1
  Na  Na2193  1  0.90000000  0.16666667  0.33333333  1
  Na  Na2194  1  0.90000000  0.16666667  0.53333333  1
  Na  Na2195  1  0.90000000  0.16666667  0.73333333  1
  Na  Na2196  1  0.90000000  0.16666667  0.93333333  1
  Na  Na2197  1  0.90000000  0.36666667  0.13333333  1
  Na  Na2198  1  0.90000000  0.36666667  0.33333333  1
  Na  Na2199  1  0.90000000  0.36666667  0.53333333  1
  Na  Na2200  1  0.90000000  0.36666667  0.73333333  1
  Na  Na2201  1  0.90000000  0.36666667  0.93333333  1
  Na  Na2202  1  0.90000000  0.56666667  0.13333333  1
  Na  Na2203  1  0.90000000  0.56666667  0.33333333  1
  Na  Na2204  1  0.90000000  0.56666667  0.53333333  1
  Na  Na2205  1  0.90000000  0.56666667  0.73333333  1
  Na  Na2206  1  0.90000000  0.56666667  0.93333333  1
  Na  Na2207  1  0.90000000  0.76666667  0.13333333  1
  Na  Na2208  1  0.90000000  0.76666667  0.33333333  1
  Na  Na2209  1  0.90000000  0.76666667  0.53333333  1
  Na  Na2210  1  0.90000000  0.76666667  0.73333333  1
  Na  Na2211  1  0.90000000  0.76666667  0.93333333  1
  Na  Na2212  1  0.90000000  0.96666667  0.13333333  1
  Na  Na2213  1  0.90000000  0.96666667  0.33333333  1
  Na  Na2214  1  0.90000000  0.96666667  0.53333333  1
  Na  Na2215  1  0.90000000  0.96666667  0.73333333  1
  Na  Na2216  1  0.90000000  0.96666667  0.93333333  1
  Na  Na2217  1  0.16666667  0.03333333  0.00000000  1
  Na  Na2218  1  0.16666667  0.03333333  0.20000000  1
  Na  Na2219  1  0.16666667  0.03333333  0.40000000  1
  Na  Na2220  1  0.16666667  0.03333333  0.60000000  1
  Na  Na2221  1  0.16666667  0.03333333  0.80000000  1
  Na  Na2222  1  0.16666667  0.23333333  0.00000000  1
  Na  Na2223  1  0.16666667  0.23333333  0.20000000  1
  Na  Na2224  1  0.16666667  0.23333333  0.40000000  1
  Na  Na2225  1  0.16666667  0.23333333  0.60000000  1
  Na  Na2226  1  0.16666667  0.23333333  0.80000000  1
  Na  Na2227  1  0.16666667  0.43333333  0.00000000  1
  Na  Na2228  1  0.16666667  0.43333333  0.20000000  1
  Na  Na2229  1  0.16666667  0.43333333  0.40000000  1
  Na  Na2230  1  0.16666667  0.43333333  0.60000000  1
  Na  Na2231  1  0.16666667  0.43333333  0.80000000  1
  Na  Na2232  1  0.16666667  0.63333333  0.00000000  1
  Na  Na2233  1  0.16666667  0.63333333  0.20000000  1
  Na  Na2234  1  0.16666667  0.63333333  0.40000000  1
  Na  Na2235  1  0.16666667  0.63333333  0.60000000  1
  Na  Na2236  1  0.16666667  0.63333333  0.80000000  1
  Na  Na2237  1  0.16666667  0.83333333  0.00000000  1
  Na  Na2238  1  0.16666667  0.83333333  0.20000000  1
  Na  Na2239  1  0.16666667  0.83333333  0.40000000  1
  Na  Na2240  1  0.16666667  0.83333333  0.60000000  1
  Na  Na2241  1  0.16666667  0.83333333  0.80000000  1
  Na  Na2242  1  0.36666667  0.03333333  0.00000000  1
  Na  Na2243  1  0.36666667  0.03333333  0.20000000  1
  Na  Na2244  1  0.36666667  0.03333333  0.40000000  1
  Na  Na2245  1  0.36666667  0.03333333  0.60000000  1
  Na  Na2246  1  0.36666667  0.03333333  0.80000000  1
  Na  Na2247  1  0.36666667  0.23333333  0.00000000  1
  Na  Na2248  1  0.36666667  0.23333333  0.20000000  1
  Na  Na2249  1  0.36666667  0.23333333  0.40000000  1
  Na  Na2250  1  0.36666667  0.23333333  0.60000000  1
  Na  Na2251  1  0.36666667  0.23333333  0.80000000  1
  Na  Na2252  1  0.36666667  0.43333333  0.00000000  1
  Na  Na2253  1  0.36666667  0.43333333  0.20000000  1
  Na  Na2254  1  0.36666667  0.43333333  0.40000000  1
  Na  Na2255  1  0.36666667  0.43333333  0.60000000  1
  Na  Na2256  1  0.36666667  0.43333333  0.80000000  1
  Na  Na2257  1  0.36666667  0.63333333  0.00000000  1
  Na  Na2258  1  0.36666667  0.63333333  0.20000000  1
  Na  Na2259  1  0.36666667  0.63333333  0.40000000  1
  Na  Na2260  1  0.36666667  0.63333333  0.60000000  1
  Na  Na2261  1  0.36666667  0.63333333  0.80000000  1
  Na  Na2262  1  0.36666667  0.83333333  0.00000000  1
  Na  Na2263  1  0.36666667  0.83333333  0.20000000  1
  Na  Na2264  1  0.36666667  0.83333333  0.40000000  1
  Na  Na2265  1  0.36666667  0.83333333  0.60000000  1
  Na  Na2266  1  0.36666667  0.83333333  0.80000000  1
  Na  Na2267  1  0.56666667  0.03333333  0.00000000  1
  Na  Na2268  1  0.56666667  0.03333333  0.20000000  1
  Na  Na2269  1  0.56666667  0.03333333  0.40000000  1
  Na  Na2270  1  0.56666667  0.03333333  0.60000000  1
  Na  Na2271  1  0.56666667  0.03333333  0.80000000  1
  Na  Na2272  1  0.56666667  0.23333333  0.00000000  1
  Na  Na2273  1  0.56666667  0.23333333  0.20000000  1
  Na  Na2274  1  0.56666667  0.23333333  0.40000000  1
  Na  Na2275  1  0.56666667  0.23333333  0.60000000  1
  Na  Na2276  1  0.56666667  0.23333333  0.80000000  1
  Na  Na2277  1  0.56666667  0.43333333  0.00000000  1
  Na  Na2278  1  0.56666667  0.43333333  0.20000000  1
  Na  Na2279  1  0.56666667  0.43333333  0.40000000  1
  Na  Na2280  1  0.56666667  0.43333333  0.60000000  1
  Na  Na2281  1  0.56666667  0.43333333  0.80000000  1
  Na  Na2282  1  0.56666667  0.63333333  0.00000000  1
  Na  Na2283  1  0.56666667  0.63333333  0.20000000  1
  Na  Na2284  1  0.56666667  0.63333333  0.40000000  1
  Na  Na2285  1  0.56666667  0.63333333  0.60000000  1
  Na  Na2286  1  0.56666667  0.63333333  0.80000000  1
  Na  Na2287  1  0.56666667  0.83333333  0.00000000  1
  Na  Na2288  1  0.56666667  0.83333333  0.20000000  1
  Na  Na2289  1  0.56666667  0.83333333  0.40000000  1
  Na  Na2290  1  0.56666667  0.83333333  0.60000000  1
  Na  Na2291  1  0.56666667  0.83333333  0.80000000  1
  Na  Na2292  1  0.76666667  0.03333333  0.00000000  1
  Na  Na2293  1  0.76666667  0.03333333  0.20000000  1
  Na  Na2294  1  0.76666667  0.03333333  0.40000000  1
  Na  Na2295  1  0.76666667  0.03333333  0.60000000  1
  Na  Na2296  1  0.76666667  0.03333333  0.80000000  1
  Na  Na2297  1  0.76666667  0.23333333  0.00000000  1
  Na  Na2298  1  0.76666667  0.23333333  0.20000000  1
  Na  Na2299  1  0.76666667  0.23333333  0.40000000  1
  Na  Na2300  1  0.76666667  0.23333333  0.60000000  1
  Na  Na2301  1  0.76666667  0.23333333  0.80000000  1
  Na  Na2302  1  0.76666667  0.43333333  0.00000000  1
  Na  Na2303  1  0.76666667  0.43333333  0.20000000  1
  Na  Na2304  1  0.76666667  0.43333333  0.40000000  1
  Na  Na2305  1  0.76666667  0.43333333  0.60000000  1
  Na  Na2306  1  0.76666667  0.43333333  0.80000000  1
  Na  Na2307  1  0.76666667  0.63333333  0.00000000  1
  Na  Na2308  1  0.76666667  0.63333333  0.20000000  1
  Na  Na2309  1  0.76666667  0.63333333  0.40000000  1
  Na  Na2310  1  0.76666667  0.63333333  0.60000000  1
  Na  Na2311  1  0.76666667  0.63333333  0.80000000  1
  Na  Na2312  1  0.76666667  0.83333333  0.00000000  1
  Na  Na2313  1  0.76666667  0.83333333  0.20000000  1
  Na  Na2314  1  0.76666667  0.83333333  0.40000000  1
  Na  Na2315  1  0.76666667  0.83333333  0.60000000  1
  Na  Na2316  1  0.76666667  0.83333333  0.80000000  1
  Na  Na2317  1  0.96666667  0.03333333  0.00000000  1
  Na  Na2318  1  0.96666667  0.03333333  0.20000000  1
  Na  Na2319  1  0.96666667  0.03333333  0.40000000  1
  Na  Na2320  1  0.96666667  0.03333333  0.60000000  1
  Na  Na2321  1  0.96666667  0.03333333  0.80000000  1
  Na  Na2322  1  0.96666667  0.23333333  0.00000000  1
  Na  Na2323  1  0.96666667  0.23333333  0.20000000  1
  Na  Na2324  1  0.96666667  0.23333333  0.40000000  1
  Na  Na2325  1  0.96666667  0.23333333  0.60000000  1
  Na  Na2326  1  0.96666667  0.23333333  0.80000000  1
  Na  Na2327  1  0.96666667  0.43333333  0.00000000  1
  Na  Na2328  1  0.96666667  0.43333333  0.20000000  1
  Na  Na2329  1  0.96666667  0.43333333  0.40000000  1
  Na  Na2330  1  0.96666667  0.43333333  0.60000000  1
  Na  Na2331  1  0.96666667  0.43333333  0.80000000  1
  Na  Na2332  1  0.96666667  0.63333333  0.00000000  1
  Na  Na2333  1  0.96666667  0.63333333  0.20000000  1
  Na  Na2334  1  0.96666667  0.63333333  0.40000000  1
  Na  Na2335  1  0.96666667  0.63333333  0.60000000  1
  Na  Na2336  1  0.96666667  0.63333333  0.80000000  1
  Na  Na2337  1  0.96666667  0.83333333  0.00000000  1
  Na  Na2338  1  0.96666667  0.83333333  0.20000000  1
  Na  Na2339  1  0.96666667  0.83333333  0.40000000  1
  Na  Na2340  1  0.96666667  0.83333333  0.60000000  1
  Na  Na2341  1  0.96666667  0.83333333  0.80000000  1
  Na  Na2342  1  0.16666667  0.03333333  0.06666667  1
  Na  Na2343  1  0.16666667  0.03333333  0.26666667  1
  Na  Na2344  1  0.16666667  0.03333333  0.46666667  1
  Na  Na2345  1  0.16666667  0.03333333  0.66666667  1
  Na  Na2346  1  0.16666667  0.03333333  0.86666667  1
  Na  Na2347  1  0.16666667  0.23333333  0.06666667  1
  Na  Na2348  1  0.16666667  0.23333333  0.26666667  1
  Na  Na2349  1  0.16666667  0.23333333  0.46666667  1
  Na  Na2350  1  0.16666667  0.23333333  0.66666667  1
  Na  Na2351  1  0.16666667  0.23333333  0.86666667  1
  Na  Na2352  1  0.16666667  0.43333333  0.06666667  1
  Na  Na2353  1  0.16666667  0.43333333  0.26666667  1
  Na  Na2354  1  0.16666667  0.43333333  0.46666667  1
  Na  Na2355  1  0.16666667  0.43333333  0.66666667  1
  Na  Na2356  1  0.16666667  0.43333333  0.86666667  1
  Na  Na2357  1  0.16666667  0.63333333  0.06666667  1
  Na  Na2358  1  0.16666667  0.63333333  0.26666667  1
  Na  Na2359  1  0.16666667  0.63333333  0.46666667  1
  Na  Na2360  1  0.16666667  0.63333333  0.66666667  1
  Na  Na2361  1  0.16666667  0.63333333  0.86666667  1
  Na  Na2362  1  0.16666667  0.83333333  0.06666667  1
  Na  Na2363  1  0.16666667  0.83333333  0.26666667  1
  Na  Na2364  1  0.16666667  0.83333333  0.46666667  1
  Na  Na2365  1  0.16666667  0.83333333  0.66666667  1
  Na  Na2366  1  0.16666667  0.83333333  0.86666667  1
  Na  Na2367  1  0.36666667  0.03333333  0.06666667  1
  Na  Na2368  1  0.36666667  0.03333333  0.26666667  1
  Na  Na2369  1  0.36666667  0.03333333  0.46666667  1
  Na  Na2370  1  0.36666667  0.03333333  0.66666667  1
  Na  Na2371  1  0.36666667  0.03333333  0.86666667  1
  Na  Na2372  1  0.36666667  0.23333333  0.06666667  1
  Na  Na2373  1  0.36666667  0.23333333  0.26666667  1
  Na  Na2374  1  0.36666667  0.23333333  0.46666667  1
  Na  Na2375  1  0.36666667  0.23333333  0.66666667  1
  Na  Na2376  1  0.36666667  0.23333333  0.86666667  1
  Na  Na2377  1  0.36666667  0.43333333  0.06666667  1
  Na  Na2378  1  0.36666667  0.43333333  0.26666667  1
  Na  Na2379  1  0.36666667  0.43333333  0.46666667  1
  Na  Na2380  1  0.36666667  0.43333333  0.66666667  1
  Na  Na2381  1  0.36666667  0.43333333  0.86666667  1
  Na  Na2382  1  0.36666667  0.63333333  0.06666667  1
  Na  Na2383  1  0.36666667  0.63333333  0.26666667  1
  Na  Na2384  1  0.36666667  0.63333333  0.46666667  1
  Na  Na2385  1  0.36666667  0.63333333  0.66666667  1
  Na  Na2386  1  0.36666667  0.63333333  0.86666667  1
  Na  Na2387  1  0.36666667  0.83333333  0.06666667  1
  Na  Na2388  1  0.36666667  0.83333333  0.26666667  1
  Na  Na2389  1  0.36666667  0.83333333  0.46666667  1
  Na  Na2390  1  0.36666667  0.83333333  0.66666667  1
  Na  Na2391  1  0.36666667  0.83333333  0.86666667  1
  Na  Na2392  1  0.56666667  0.03333333  0.06666667  1
  Na  Na2393  1  0.56666667  0.03333333  0.26666667  1
  Na  Na2394  1  0.56666667  0.03333333  0.46666667  1
  Na  Na2395  1  0.56666667  0.03333333  0.66666667  1
  Na  Na2396  1  0.56666667  0.03333333  0.86666667  1
  Na  Na2397  1  0.56666667  0.23333333  0.06666667  1
  Na  Na2398  1  0.56666667  0.23333333  0.26666667  1
  Na  Na2399  1  0.56666667  0.23333333  0.46666667  1
  Na  Na2400  1  0.56666667  0.23333333  0.66666667  1
  Na  Na2401  1  0.56666667  0.23333333  0.86666667  1
  Na  Na2402  1  0.56666667  0.43333333  0.06666667  1
  Na  Na2403  1  0.56666667  0.43333333  0.26666667  1
  Na  Na2404  1  0.56666667  0.43333333  0.46666667  1
  Na  Na2405  1  0.56666667  0.43333333  0.66666667  1
  Na  Na2406  1  0.56666667  0.43333333  0.86666667  1
  Na  Na2407  1  0.56666667  0.63333333  0.06666667  1
  Na  Na2408  1  0.56666667  0.63333333  0.26666667  1
  Na  Na2409  1  0.56666667  0.63333333  0.46666667  1
  Na  Na2410  1  0.56666667  0.63333333  0.66666667  1
  Na  Na2411  1  0.56666667  0.63333333  0.86666667  1
  Na  Na2412  1  0.56666667  0.83333333  0.06666667  1
  Na  Na2413  1  0.56666667  0.83333333  0.26666667  1
  Na  Na2414  1  0.56666667  0.83333333  0.46666667  1
  Na  Na2415  1  0.56666667  0.83333333  0.66666667  1
  Na  Na2416  1  0.56666667  0.83333333  0.86666667  1
  Na  Na2417  1  0.76666667  0.03333333  0.06666667  1
  Na  Na2418  1  0.76666667  0.03333333  0.26666667  1
  Na  Na2419  1  0.76666667  0.03333333  0.46666667  1
  Na  Na2420  1  0.76666667  0.03333333  0.66666667  1
  Na  Na2421  1  0.76666667  0.03333333  0.86666667  1
  Na  Na2422  1  0.76666667  0.23333333  0.26666667  1
  Na  Na2423  1  0.76666667  0.23333333  0.46666667  1
  Na  Na2424  1  0.76666667  0.23333333  0.66666667  1
  Na  Na2425  1  0.76666667  0.23333333  0.86666667  1
  Na  Na2426  1  0.76666667  0.43333333  0.06666667  1
  Na  Na2427  1  0.76666667  0.43333333  0.26666667  1
  Na  Na2428  1  0.76666667  0.43333333  0.46666667  1
  Na  Na2429  1  0.76666667  0.43333333  0.66666667  1
  Na  Na2430  1  0.76666667  0.43333333  0.86666667  1
  Na  Na2431  1  0.76666667  0.63333333  0.06666667  1
  Na  Na2432  1  0.76666667  0.63333333  0.26666667  1
  Na  Na2433  1  0.76666667  0.63333333  0.46666667  1
  Na  Na2434  1  0.76666667  0.63333333  0.66666667  1
  Na  Na2435  1  0.76666667  0.63333333  0.86666667  1
  Na  Na2436  1  0.76666667  0.83333333  0.06666667  1
  Na  Na2437  1  0.76666667  0.83333333  0.26666667  1
  Na  Na2438  1  0.76666667  0.83333333  0.46666667  1
  Na  Na2439  1  0.76666667  0.83333333  0.66666667  1
  Na  Na2440  1  0.96666667  0.03333333  0.06666667  1
  Na  Na2441  1  0.96666667  0.03333333  0.26666667  1
  Na  Na2442  1  0.96666667  0.03333333  0.46666667  1
  Na  Na2443  1  0.96666667  0.03333333  0.66666667  1
  Na  Na2444  1  0.96666667  0.03333333  0.86666667  1
  Na  Na2445  1  0.96666667  0.23333333  0.06666667  1
  Na  Na2446  1  0.96666667  0.23333333  0.26666667  1
  Na  Na2447  1  0.96666667  0.23333333  0.46666667  1
  Na  Na2448  1  0.96666667  0.23333333  0.66666667  1
  Na  Na2449  1  0.96666667  0.23333333  0.86666667  1
  Na  Na2450  1  0.96666667  0.43333333  0.06666667  1
  Na  Na2451  1  0.96666667  0.43333333  0.26666667  1
  Na  Na2452  1  0.96666667  0.43333333  0.46666667  1
  Na  Na2453  1  0.96666667  0.43333333  0.66666667  1
  Na  Na2454  1  0.96666667  0.43333333  0.86666667  1
  Na  Na2455  1  0.96666667  0.63333333  0.06666667  1
  Na  Na2456  1  0.96666667  0.63333333  0.26666667  1
  Na  Na2457  1  0.96666667  0.63333333  0.46666667  1
  Na  Na2458  1  0.96666667  0.63333333  0.66666667  1
  Na  Na2459  1  0.96666667  0.63333333  0.86666667  1
  Na  Na2460  1  0.96666667  0.83333333  0.06666667  1
  Na  Na2461  1  0.96666667  0.83333333  0.26666667  1
  Na  Na2462  1  0.96666667  0.83333333  0.46666667  1
  Na  Na2463  1  0.96666667  0.83333333  0.66666667  1
  Na  Na2464  1  0.96666667  0.83333333  0.86666667  1
  Na  Na2465  1  0.16666667  0.03333333  0.13333333  1
  Na  Na2466  1  0.16666667  0.03333333  0.33333333  1
  Na  Na2467  1  0.16666667  0.03333333  0.53333333  1
  Na  Na2468  1  0.16666667  0.03333333  0.73333333  1
  Na  Na2469  1  0.16666667  0.03333333  0.93333333  1
  Na  Na2470  1  0.16666667  0.23333333  0.13333333  1
  Na  Na2471  1  0.16666667  0.23333333  0.33333333  1
  Na  Na2472  1  0.16666667  0.23333333  0.53333333  1
  Na  Na2473  1  0.16666667  0.23333333  0.73333333  1
  Na  Na2474  1  0.16666667  0.23333333  0.93333333  1
  Na  Na2475  1  0.16666667  0.43333333  0.13333333  1
  Na  Na2476  1  0.16666667  0.43333333  0.33333333  1
  Na  Na2477  1  0.16666667  0.43333333  0.53333333  1
  Na  Na2478  1  0.16666667  0.43333333  0.73333333  1
  Na  Na2479  1  0.16666667  0.43333333  0.93333333  1
  Na  Na2480  1  0.16666667  0.63333333  0.13333333  1
  Na  Na2481  1  0.16666667  0.63333333  0.33333333  1
  Na  Na2482  1  0.16666667  0.63333333  0.53333333  1
  Na  Na2483  1  0.16666667  0.63333333  0.73333333  1
  Na  Na2484  1  0.16666667  0.63333333  0.93333333  1
  Na  Na2485  1  0.16666667  0.83333333  0.13333333  1
  Na  Na2486  1  0.16666667  0.83333333  0.33333333  1
  Na  Na2487  1  0.16666667  0.83333333  0.53333333  1
  Na  Na2488  1  0.16666667  0.83333333  0.73333333  1
  Na  Na2489  1  0.16666667  0.83333333  0.93333333  1
  Na  Na2490  1  0.36666667  0.03333333  0.13333333  1
  Na  Na2491  1  0.36666667  0.03333333  0.33333333  1
  Na  Na2492  1  0.36666667  0.03333333  0.53333333  1
  Na  Na2493  1  0.36666667  0.03333333  0.73333333  1
  Na  Na2494  1  0.36666667  0.03333333  0.93333333  1
  Na  Na2495  1  0.36666667  0.23333333  0.13333333  1
  Na  Na2496  1  0.36666667  0.23333333  0.33333333  1
  Na  Na2497  1  0.36666667  0.23333333  0.53333333  1
  Na  Na2498  1  0.36666667  0.23333333  0.73333333  1
  Na  Na2499  1  0.36666667  0.23333333  0.93333333  1
  Na  Na2500  1  0.36666667  0.43333333  0.13333333  1
  Na  Na2501  1  0.36666667  0.43333333  0.33333333  1
  Na  Na2502  1  0.36666667  0.43333333  0.53333333  1
  Na  Na2503  1  0.36666667  0.43333333  0.73333333  1
  Na  Na2504  1  0.36666667  0.43333333  0.93333333  1
  Na  Na2505  1  0.36666667  0.63333333  0.13333333  1
  Na  Na2506  1  0.36666667  0.63333333  0.33333333  1
  Na  Na2507  1  0.36666667  0.63333333  0.53333333  1
  Na  Na2508  1  0.36666667  0.63333333  0.73333333  1
  Na  Na2509  1  0.36666667  0.63333333  0.93333333  1
  Na  Na2510  1  0.36666667  0.83333333  0.13333333  1
  Na  Na2511  1  0.36666667  0.83333333  0.33333333  1
  Na  Na2512  1  0.36666667  0.83333333  0.53333333  1
  Na  Na2513  1  0.36666667  0.83333333  0.73333333  1
  Na  Na2514  1  0.36666667  0.83333333  0.93333333  1
  Na  Na2515  1  0.56666667  0.03333333  0.13333333  1
  Na  Na2516  1  0.56666667  0.03333333  0.33333333  1
  Na  Na2517  1  0.56666667  0.03333333  0.53333333  1
  Na  Na2518  1  0.56666667  0.03333333  0.73333333  1
  Na  Na2519  1  0.56666667  0.03333333  0.93333333  1
  Na  Na2520  1  0.56666667  0.23333333  0.13333333  1
  Na  Na2521  1  0.56666667  0.23333333  0.33333333  1
  Na  Na2522  1  0.56666667  0.23333333  0.53333333  1
  Na  Na2523  1  0.56666667  0.23333333  0.73333333  1
  Na  Na2524  1  0.56666667  0.23333333  0.93333333  1
  Na  Na2525  1  0.56666667  0.43333333  0.13333333  1
  Na  Na2526  1  0.56666667  0.43333333  0.33333333  1
  Na  Na2527  1  0.56666667  0.43333333  0.53333333  1
  Na  Na2528  1  0.56666667  0.43333333  0.73333333  1
  Na  Na2529  1  0.56666667  0.43333333  0.93333333  1
  Na  Na2530  1  0.56666667  0.63333333  0.13333333  1
  Na  Na2531  1  0.56666667  0.63333333  0.33333333  1
  Na  Na2532  1  0.56666667  0.63333333  0.53333333  1
  Na  Na2533  1  0.56666667  0.63333333  0.73333333  1
  Na  Na2534  1  0.56666667  0.63333333  0.93333333  1
  Na  Na2535  1  0.56666667  0.83333333  0.13333333  1
  Na  Na2536  1  0.56666667  0.83333333  0.33333333  1
  Na  Na2537  1  0.56666667  0.83333333  0.53333333  1
  Na  Na2538  1  0.56666667  0.83333333  0.73333333  1
  Na  Na2539  1  0.56666667  0.83333333  0.93333333  1
  Na  Na2540  1  0.76666667  0.03333333  0.13333333  1
  Na  Na2541  1  0.76666667  0.03333333  0.33333333  1
  Na  Na2542  1  0.76666667  0.03333333  0.53333333  1
  Na  Na2543  1  0.76666667  0.03333333  0.73333333  1
  Na  Na2544  1  0.76666667  0.03333333  0.93333333  1
  Na  Na2545  1  0.76666667  0.23333333  0.13333333  1
  Na  Na2546  1  0.76666667  0.23333333  0.33333333  1
  Na  Na2547  1  0.76666667  0.23333333  0.53333333  1
  Na  Na2548  1  0.76666667  0.23333333  0.73333333  1
  Na  Na2549  1  0.76666667  0.23333333  0.93333333  1
  Na  Na2550  1  0.76666667  0.43333333  0.13333333  1
  Na  Na2551  1  0.76666667  0.43333333  0.33333333  1
  Na  Na2552  1  0.76666667  0.43333333  0.53333333  1
  Na  Na2553  1  0.76666667  0.43333333  0.73333333  1
  Na  Na2554  1  0.76666667  0.43333333  0.93333333  1
  Na  Na2555  1  0.76666667  0.63333333  0.13333333  1
  Na  Na2556  1  0.76666667  0.63333333  0.33333333  1
  Na  Na2557  1  0.76666667  0.63333333  0.53333333  1
  Na  Na2558  1  0.76666667  0.63333333  0.73333333  1
  Na  Na2559  1  0.76666667  0.63333333  0.93333333  1
  Na  Na2560  1  0.76666667  0.83333333  0.13333333  1
  Na  Na2561  1  0.76666667  0.83333333  0.33333333  1
  Na  Na2562  1  0.76666667  0.83333333  0.53333333  1
  Na  Na2563  1  0.76666667  0.83333333  0.73333333  1
  Na  Na2564  1  0.76666667  0.83333333  0.93333333  1
  Na  Na2565  1  0.96666667  0.03333333  0.13333333  1
  Na  Na2566  1  0.96666667  0.03333333  0.33333333  1
  Na  Na2567  1  0.96666667  0.03333333  0.53333333  1
  Na  Na2568  1  0.96666667  0.03333333  0.73333333  1
  Na  Na2569  1  0.96666667  0.03333333  0.93333333  1
  Na  Na2570  1  0.96666667  0.23333333  0.13333333  1
  Na  Na2571  1  0.96666667  0.23333333  0.33333333  1
  Na  Na2572  1  0.96666667  0.23333333  0.53333333  1
  Na  Na2573  1  0.96666667  0.23333333  0.73333333  1
  Na  Na2574  1  0.96666667  0.23333333  0.93333333  1
  Na  Na2575  1  0.96666667  0.43333333  0.13333333  1
  Na  Na2576  1  0.96666667  0.43333333  0.33333333  1
  Na  Na2577  1  0.96666667  0.43333333  0.53333333  1
  Na  Na2578  1  0.96666667  0.43333333  0.73333333  1
  Na  Na2579  1  0.96666667  0.43333333  0.93333333  1
  Na  Na2580  1  0.96666667  0.63333333  0.13333333  1
  Na  Na2581  1  0.96666667  0.63333333  0.33333333  1
  Na  Na2582  1  0.96666667  0.63333333  0.53333333  1
  Na  Na2583  1  0.96666667  0.63333333  0.73333333  1
  Na  Na2584  1  0.96666667  0.63333333  0.93333333  1
  Na  Na2585  1  0.96666667  0.83333333  0.13333333  1
  Na  Na2586  1  0.96666667  0.83333333  0.33333333  1
  Na  Na2587  1  0.96666667  0.83333333  0.53333333  1
  Na  Na2588  1  0.96666667  0.83333333  0.73333333  1
  Na  Na2589  1  0.96666667  0.83333333  0.93333333  1
  Na  Na2590  1  0.16666667  0.10000000  0.00000000  1
  Na  Na2591  1  0.16666667  0.10000000  0.20000000  1
  Na  Na2592  1  0.16666667  0.10000000  0.40000000  1
  Na  Na2593  1  0.16666667  0.10000000  0.60000000  1
  Na  Na2594  1  0.16666667  0.10000000  0.80000000  1
  Na  Na2595  1  0.16666667  0.30000000  0.00000000  1
  Na  Na2596  1  0.16666667  0.30000000  0.20000000  1
  Na  Na2597  1  0.16666667  0.30000000  0.40000000  1
  Na  Na2598  1  0.16666667  0.30000000  0.60000000  1
  Na  Na2599  1  0.16666667  0.30000000  0.80000000  1
  Na  Na2600  1  0.16666667  0.50000000  0.00000000  1
  Na  Na2601  1  0.16666667  0.50000000  0.20000000  1
  Na  Na2602  1  0.16666667  0.50000000  0.40000000  1
  Na  Na2603  1  0.16666667  0.50000000  0.60000000  1
  Na  Na2604  1  0.16666667  0.50000000  0.80000000  1
  Na  Na2605  1  0.16666667  0.70000000  0.00000000  1
  Na  Na2606  1  0.16666667  0.70000000  0.20000000  1
  Na  Na2607  1  0.16666667  0.70000000  0.40000000  1
  Na  Na2608  1  0.16666667  0.70000000  0.60000000  1
  Na  Na2609  1  0.16666667  0.70000000  0.80000000  1
  Na  Na2610  1  0.16666667  0.90000000  0.00000000  1
  Na  Na2611  1  0.16666667  0.90000000  0.20000000  1
  Na  Na2612  1  0.16666667  0.90000000  0.40000000  1
  Na  Na2613  1  0.16666667  0.90000000  0.60000000  1
  Na  Na2614  1  0.16666667  0.90000000  0.80000000  1
  Na  Na2615  1  0.36666667  0.10000000  0.00000000  1
  Na  Na2616  1  0.36666667  0.10000000  0.20000000  1
  Na  Na2617  1  0.36666667  0.10000000  0.40000000  1
  Na  Na2618  1  0.36666667  0.10000000  0.60000000  1
  Na  Na2619  1  0.36666667  0.10000000  0.80000000  1
  Na  Na2620  1  0.36666667  0.30000000  0.00000000  1
  Na  Na2621  1  0.36666667  0.30000000  0.20000000  1
  Na  Na2622  1  0.36666667  0.30000000  0.40000000  1
  Na  Na2623  1  0.36666667  0.30000000  0.60000000  1
  Na  Na2624  1  0.36666667  0.30000000  0.80000000  1
  Na  Na2625  1  0.36666667  0.50000000  0.00000000  1
  Na  Na2626  1  0.36666667  0.50000000  0.20000000  1
  Na  Na2627  1  0.36666667  0.50000000  0.40000000  1
  Na  Na2628  1  0.36666667  0.50000000  0.60000000  1
  Na  Na2629  1  0.36666667  0.50000000  0.80000000  1
  Na  Na2630  1  0.36666667  0.70000000  0.00000000  1
  Na  Na2631  1  0.36666667  0.70000000  0.20000000  1
  Na  Na2632  1  0.36666667  0.70000000  0.40000000  1
  Na  Na2633  1  0.36666667  0.70000000  0.60000000  1
  Na  Na2634  1  0.36666667  0.70000000  0.80000000  1
  Na  Na2635  1  0.36666667  0.90000000  0.00000000  1
  Na  Na2636  1  0.36666667  0.90000000  0.20000000  1
  Na  Na2637  1  0.36666667  0.90000000  0.40000000  1
  Na  Na2638  1  0.36666667  0.90000000  0.60000000  1
  Na  Na2639  1  0.36666667  0.90000000  0.80000000  1
  Na  Na2640  1  0.56666667  0.10000000  0.00000000  1
  Na  Na2641  1  0.56666667  0.10000000  0.20000000  1
  Na  Na2642  1  0.56666667  0.10000000  0.40000000  1
  Na  Na2643  1  0.56666667  0.10000000  0.60000000  1
  Na  Na2644  1  0.56666667  0.10000000  0.80000000  1
  Na  Na2645  1  0.56666667  0.30000000  0.00000000  1
  Na  Na2646  1  0.56666667  0.30000000  0.20000000  1
  Na  Na2647  1  0.56666667  0.30000000  0.40000000  1
  Na  Na2648  1  0.56666667  0.30000000  0.60000000  1
  Na  Na2649  1  0.56666667  0.30000000  0.80000000  1
  Na  Na2650  1  0.56666667  0.50000000  0.00000000  1
  Na  Na2651  1  0.56666667  0.50000000  0.20000000  1
  Na  Na2652  1  0.56666667  0.50000000  0.40000000  1
  Na  Na2653  1  0.56666667  0.50000000  0.60000000  1
  Na  Na2654  1  0.56666667  0.50000000  0.80000000  1
  Na  Na2655  1  0.56666667  0.70000000  0.00000000  1
  Na  Na2656  1  0.56666667  0.70000000  0.20000000  1
  Na  Na2657  1  0.56666667  0.70000000  0.40000000  1
  Na  Na2658  1  0.56666667  0.70000000  0.60000000  1
  Na  Na2659  1  0.56666667  0.70000000  0.80000000  1
  Na  Na2660  1  0.56666667  0.90000000  0.00000000  1
  Na  Na2661  1  0.56666667  0.90000000  0.20000000  1
  Na  Na2662  1  0.56666667  0.90000000  0.60000000  1
  Na  Na2663  1  0.56666667  0.90000000  0.80000000  1
  Na  Na2664  1  0.76666667  0.10000000  0.00000000  1
  Na  Na2665  1  0.76666667  0.10000000  0.20000000  1
  Na  Na2666  1  0.76666667  0.10000000  0.40000000  1
  Na  Na2667  1  0.76666667  0.10000000  0.60000000  1
  Na  Na2668  1  0.76666667  0.10000000  0.80000000  1
  Na  Na2669  1  0.76666667  0.30000000  0.00000000  1
  Na  Na2670  1  0.76666667  0.30000000  0.20000000  1
  Na  Na2671  1  0.76666667  0.30000000  0.40000000  1
  Na  Na2672  1  0.76666667  0.30000000  0.60000000  1
  Na  Na2673  1  0.76666667  0.30000000  0.80000000  1
  Na  Na2674  1  0.76666667  0.50000000  0.00000000  1
  Na  Na2675  1  0.76666667  0.50000000  0.20000000  1
  Na  Na2676  1  0.76666667  0.50000000  0.40000000  1
  Na  Na2677  1  0.76666667  0.50000000  0.60000000  1
  Na  Na2678  1  0.76666667  0.50000000  0.80000000  1
  Na  Na2679  1  0.76666667  0.70000000  0.00000000  1
  Na  Na2680  1  0.76666667  0.70000000  0.20000000  1
  Na  Na2681  1  0.76666667  0.70000000  0.40000000  1
  Na  Na2682  1  0.76666667  0.70000000  0.60000000  1
  Na  Na2683  1  0.76666667  0.70000000  0.80000000  1
  Na  Na2684  1  0.76666667  0.90000000  0.00000000  1
  Na  Na2685  1  0.76666667  0.90000000  0.20000000  1
  Na  Na2686  1  0.76666667  0.90000000  0.40000000  1
  Na  Na2687  1  0.76666667  0.90000000  0.60000000  1
  Na  Na2688  1  0.76666667  0.90000000  0.80000000  1
  Na  Na2689  1  0.96666667  0.10000000  0.00000000  1
  Na  Na2690  1  0.96666667  0.10000000  0.20000000  1
  Na  Na2691  1  0.96666667  0.10000000  0.40000000  1
  Na  Na2692  1  0.96666667  0.10000000  0.60000000  1
  Na  Na2693  1  0.96666667  0.10000000  0.80000000  1
  Na  Na2694  1  0.96666667  0.30000000  0.00000000  1
  Na  Na2695  1  0.96666667  0.30000000  0.20000000  1
  Na  Na2696  1  0.96666667  0.30000000  0.40000000  1
  Na  Na2697  1  0.96666667  0.30000000  0.60000000  1
  Na  Na2698  1  0.96666667  0.30000000  0.80000000  1
  Na  Na2699  1  0.96666667  0.50000000  0.00000000  1
  Na  Na2700  1  0.96666667  0.50000000  0.20000000  1
  Na  Na2701  1  0.96666667  0.50000000  0.40000000  1
  Na  Na2702  1  0.96666667  0.50000000  0.60000000  1
  Na  Na2703  1  0.96666667  0.50000000  0.80000000  1
  Na  Na2704  1  0.96666667  0.70000000  0.00000000  1
  Na  Na2705  1  0.96666667  0.70000000  0.20000000  1
  Na  Na2706  1  0.96666667  0.70000000  0.40000000  1
  Na  Na2707  1  0.96666667  0.70000000  0.60000000  1
  Na  Na2708  1  0.96666667  0.70000000  0.80000000  1
  Na  Na2709  1  0.96666667  0.90000000  0.00000000  1
  Na  Na2710  1  0.96666667  0.90000000  0.20000000  1
  Na  Na2711  1  0.96666667  0.90000000  0.40000000  1
  Na  Na2712  1  0.96666667  0.90000000  0.60000000  1
  Na  Na2713  1  0.96666667  0.90000000  0.80000000  1
  Na  Na2714  1  0.16666667  0.10000000  0.06666667  1
  Na  Na2715  1  0.16666667  0.10000000  0.26666667  1
  Na  Na2716  1  0.16666667  0.10000000  0.46666667  1
  Na  Na2717  1  0.16666667  0.10000000  0.66666667  1
  Na  Na2718  1  0.16666667  0.10000000  0.86666667  1
  Na  Na2719  1  0.16666667  0.30000000  0.06666667  1
  Na  Na2720  1  0.16666667  0.30000000  0.26666667  1
  Na  Na2721  1  0.16666667  0.30000000  0.46666667  1
  Na  Na2722  1  0.16666667  0.30000000  0.66666667  1
  Na  Na2723  1  0.16666667  0.30000000  0.86666667  1
  Na  Na2724  1  0.16666667  0.50000000  0.06666667  1
  Na  Na2725  1  0.16666667  0.50000000  0.26666667  1
  Na  Na2726  1  0.16666667  0.50000000  0.46666667  1
  Na  Na2727  1  0.16666667  0.50000000  0.66666667  1
  Na  Na2728  1  0.16666667  0.50000000  0.86666667  1
  Na  Na2729  1  0.16666667  0.70000000  0.06666667  1
  Na  Na2730  1  0.16666667  0.70000000  0.26666667  1
  Na  Na2731  1  0.16666667  0.70000000  0.46666667  1
  Na  Na2732  1  0.16666667  0.70000000  0.66666667  1
  Na  Na2733  1  0.16666667  0.70000000  0.86666667  1
  Na  Na2734  1  0.16666667  0.90000000  0.06666667  1
  Na  Na2735  1  0.16666667  0.90000000  0.26666667  1
  Na  Na2736  1  0.16666667  0.90000000  0.46666667  1
  Na  Na2737  1  0.16666667  0.90000000  0.66666667  1
  Na  Na2738  1  0.16666667  0.90000000  0.86666667  1
  Na  Na2739  1  0.36666667  0.10000000  0.06666667  1
  Na  Na2740  1  0.36666667  0.10000000  0.26666667  1
  Na  Na2741  1  0.36666667  0.10000000  0.46666667  1
  Na  Na2742  1  0.36666667  0.10000000  0.66666667  1
  Na  Na2743  1  0.36666667  0.10000000  0.86666667  1
  Na  Na2744  1  0.36666667  0.30000000  0.06666667  1
  Na  Na2745  1  0.36666667  0.30000000  0.26666667  1
  Na  Na2746  1  0.36666667  0.30000000  0.46666667  1
  Na  Na2747  1  0.36666667  0.30000000  0.66666667  1
  Na  Na2748  1  0.36666667  0.30000000  0.86666667  1
  Na  Na2749  1  0.36666667  0.50000000  0.06666667  1
  Na  Na2750  1  0.36666667  0.50000000  0.26666667  1
  Na  Na2751  1  0.36666667  0.50000000  0.46666667  1
  Na  Na2752  1  0.36666667  0.50000000  0.66666667  1
  Na  Na2753  1  0.36666667  0.50000000  0.86666667  1
  Na  Na2754  1  0.36666667  0.70000000  0.06666667  1
  Na  Na2755  1  0.36666667  0.70000000  0.26666667  1
  Na  Na2756  1  0.36666667  0.70000000  0.46666667  1
  Na  Na2757  1  0.36666667  0.70000000  0.66666667  1
  Na  Na2758  1  0.36666667  0.70000000  0.86666667  1
  Na  Na2759  1  0.36666667  0.90000000  0.06666667  1
  Na  Na2760  1  0.36666667  0.90000000  0.26666667  1
  Na  Na2761  1  0.36666667  0.90000000  0.46666667  1
  Na  Na2762  1  0.36666667  0.90000000  0.66666667  1
  Na  Na2763  1  0.36666667  0.90000000  0.86666667  1
  Na  Na2764  1  0.56666667  0.10000000  0.06666667  1
  Na  Na2765  1  0.56666667  0.10000000  0.26666667  1
  Na  Na2766  1  0.56666667  0.10000000  0.46666667  1
  Na  Na2767  1  0.56666667  0.10000000  0.66666667  1
  Na  Na2768  1  0.56666667  0.10000000  0.86666667  1
  Na  Na2769  1  0.56666667  0.30000000  0.06666667  1
  Na  Na2770  1  0.56666667  0.30000000  0.26666667  1
  Na  Na2771  1  0.56666667  0.30000000  0.46666667  1
  Na  Na2772  1  0.56666667  0.30000000  0.66666667  1
  Na  Na2773  1  0.56666667  0.30000000  0.86666667  1
  Na  Na2774  1  0.56666667  0.50000000  0.06666667  1
  Na  Na2775  1  0.56666667  0.50000000  0.26666667  1
  Na  Na2776  1  0.56666667  0.50000000  0.46666667  1
  Na  Na2777  1  0.56666667  0.50000000  0.66666667  1
  Na  Na2778  1  0.56666667  0.50000000  0.86666667  1
  Na  Na2779  1  0.56666667  0.70000000  0.06666667  1
  Na  Na2780  1  0.56666667  0.70000000  0.26666667  1
  Na  Na2781  1  0.56666667  0.70000000  0.46666667  1
  Na  Na2782  1  0.56666667  0.70000000  0.66666667  1
  Na  Na2783  1  0.56666667  0.70000000  0.86666667  1
  Na  Na2784  1  0.56666667  0.90000000  0.06666667  1
  Na  Na2785  1  0.56666667  0.90000000  0.26666667  1
  Na  Na2786  1  0.56666667  0.90000000  0.46666667  1
  Na  Na2787  1  0.56666667  0.90000000  0.66666667  1
  Na  Na2788  1  0.76666667  0.10000000  0.06666667  1
  Na  Na2789  1  0.76666667  0.10000000  0.26666667  1
  Na  Na2790  1  0.76666667  0.10000000  0.46666667  1
  Na  Na2791  1  0.76666667  0.10000000  0.66666667  1
  Na  Na2792  1  0.76666667  0.10000000  0.86666667  1
  Na  Na2793  1  0.76666667  0.30000000  0.06666667  1
  Na  Na2794  1  0.76666667  0.30000000  0.26666667  1
  Na  Na2795  1  0.76666667  0.30000000  0.46666667  1
  Na  Na2796  1  0.76666667  0.30000000  0.66666667  1
  Na  Na2797  1  0.76666667  0.30000000  0.86666667  1
  Na  Na2798  1  0.76666667  0.50000000  0.06666667  1
  Na  Na2799  1  0.76666667  0.50000000  0.26666667  1
  Na  Na2800  1  0.76666667  0.50000000  0.46666667  1
  Na  Na2801  1  0.76666667  0.50000000  0.66666667  1
  Na  Na2802  1  0.76666667  0.50000000  0.86666667  1
  Na  Na2803  1  0.76666667  0.70000000  0.06666667  1
  Na  Na2804  1  0.76666667  0.70000000  0.26666667  1
  Na  Na2805  1  0.76666667  0.70000000  0.46666667  1
  Na  Na2806  1  0.76666667  0.70000000  0.66666667  1
  Na  Na2807  1  0.76666667  0.70000000  0.86666667  1
  Na  Na2808  1  0.76666667  0.90000000  0.06666667  1
  Na  Na2809  1  0.76666667  0.90000000  0.26666667  1
  Na  Na2810  1  0.76666667  0.90000000  0.46666667  1
  Na  Na2811  1  0.76666667  0.90000000  0.66666667  1
  Na  Na2812  1  0.76666667  0.90000000  0.86666667  1
  Na  Na2813  1  0.96666667  0.10000000  0.06666667  1
  Na  Na2814  1  0.96666667  0.10000000  0.26666667  1
  Na  Na2815  1  0.96666667  0.10000000  0.46666667  1
  Na  Na2816  1  0.96666667  0.10000000  0.66666667  1
  Na  Na2817  1  0.96666667  0.10000000  0.86666667  1
  Na  Na2818  1  0.96666667  0.30000000  0.06666667  1
  Na  Na2819  1  0.96666667  0.30000000  0.26666667  1
  Na  Na2820  1  0.96666667  0.30000000  0.46666667  1
  Na  Na2821  1  0.96666667  0.30000000  0.66666667  1
  Na  Na2822  1  0.96666667  0.30000000  0.86666667  1
  Na  Na2823  1  0.96666667  0.50000000  0.06666667  1
  Na  Na2824  1  0.96666667  0.50000000  0.26666667  1
  Na  Na2825  1  0.96666667  0.50000000  0.46666667  1
  Na  Na2826  1  0.96666667  0.50000000  0.66666667  1
  Na  Na2827  1  0.96666667  0.50000000  0.86666667  1
  Na  Na2828  1  0.96666667  0.70000000  0.06666667  1
  Na  Na2829  1  0.96666667  0.70000000  0.26666667  1
  Na  Na2830  1  0.96666667  0.70000000  0.46666667  1
  Na  Na2831  1  0.96666667  0.70000000  0.66666667  1
  Na  Na2832  1  0.96666667  0.70000000  0.86666667  1
  Na  Na2833  1  0.96666667  0.90000000  0.06666667  1
  Na  Na2834  1  0.96666667  0.90000000  0.26666667  1
  Na  Na2835  1  0.96666667  0.90000000  0.46666667  1
  Na  Na2836  1  0.96666667  0.90000000  0.66666667  1
  Na  Na2837  1  0.96666667  0.90000000  0.86666667  1
  Na  Na2838  1  0.16666667  0.10000000  0.13333333  1
  Na  Na2839  1  0.16666667  0.10000000  0.33333333  1
  Na  Na2840  1  0.16666667  0.10000000  0.53333333  1
  Na  Na2841  1  0.16666667  0.10000000  0.73333333  1
  Na  Na2842  1  0.16666667  0.10000000  0.93333333  1
  Na  Na2843  1  0.16666667  0.30000000  0.13333333  1
  Na  Na2844  1  0.16666667  0.30000000  0.33333333  1
  Na  Na2845  1  0.16666667  0.30000000  0.53333333  1
  Na  Na2846  1  0.16666667  0.30000000  0.73333333  1
  Na  Na2847  1  0.16666667  0.30000000  0.93333333  1
  Na  Na2848  1  0.16666667  0.50000000  0.13333333  1
  Na  Na2849  1  0.16666667  0.50000000  0.33333333  1
  Na  Na2850  1  0.16666667  0.50000000  0.53333333  1
  Na  Na2851  1  0.16666667  0.50000000  0.73333333  1
  Na  Na2852  1  0.16666667  0.50000000  0.93333333  1
  Na  Na2853  1  0.16666667  0.70000000  0.13333333  1
  Na  Na2854  1  0.16666667  0.70000000  0.33333333  1
  Na  Na2855  1  0.16666667  0.70000000  0.53333333  1
  Na  Na2856  1  0.16666667  0.70000000  0.73333333  1
  Na  Na2857  1  0.16666667  0.70000000  0.93333333  1
  Na  Na2858  1  0.16666667  0.90000000  0.13333333  1
  Na  Na2859  1  0.16666667  0.90000000  0.33333333  1
  Na  Na2860  1  0.16666667  0.90000000  0.53333333  1
  Na  Na2861  1  0.16666667  0.90000000  0.73333333  1
  Na  Na2862  1  0.16666667  0.90000000  0.93333333  1
  Na  Na2863  1  0.36666667  0.10000000  0.13333333  1
  Na  Na2864  1  0.36666667  0.10000000  0.33333333  1
  Na  Na2865  1  0.36666667  0.10000000  0.53333333  1
  Na  Na2866  1  0.36666667  0.10000000  0.73333333  1
  Na  Na2867  1  0.36666667  0.10000000  0.93333333  1
  Na  Na2868  1  0.36666667  0.30000000  0.13333333  1
  Na  Na2869  1  0.36666667  0.30000000  0.33333333  1
  Na  Na2870  1  0.36666667  0.30000000  0.53333333  1
  Na  Na2871  1  0.36666667  0.30000000  0.73333333  1
  Na  Na2872  1  0.36666667  0.30000000  0.93333333  1
  Na  Na2873  1  0.36666667  0.50000000  0.13333333  1
  Na  Na2874  1  0.36666667  0.50000000  0.33333333  1
  Na  Na2875  1  0.36666667  0.50000000  0.53333333  1
  Na  Na2876  1  0.36666667  0.50000000  0.73333333  1
  Na  Na2877  1  0.36666667  0.50000000  0.93333333  1
  Na  Na2878  1  0.36666667  0.70000000  0.13333333  1
  Na  Na2879  1  0.36666667  0.70000000  0.33333333  1
  Na  Na2880  1  0.36666667  0.70000000  0.53333333  1
  Na  Na2881  1  0.36666667  0.70000000  0.73333333  1
  Na  Na2882  1  0.36666667  0.70000000  0.93333333  1
  Na  Na2883  1  0.36666667  0.90000000  0.13333333  1
  Na  Na2884  1  0.36666667  0.90000000  0.33333333  1
  Na  Na2885  1  0.36666667  0.90000000  0.53333333  1
  Na  Na2886  1  0.36666667  0.90000000  0.73333333  1
  Na  Na2887  1  0.36666667  0.90000000  0.93333333  1
  Na  Na2888  1  0.56666667  0.10000000  0.13333333  1
  Na  Na2889  1  0.56666667  0.10000000  0.33333333  1
  Na  Na2890  1  0.56666667  0.10000000  0.53333333  1
  Na  Na2891  1  0.56666667  0.10000000  0.73333333  1
  Na  Na2892  1  0.56666667  0.10000000  0.93333333  1
  Na  Na2893  1  0.56666667  0.30000000  0.13333333  1
  Na  Na2894  1  0.56666667  0.30000000  0.33333333  1
  Na  Na2895  1  0.56666667  0.30000000  0.53333333  1
  Na  Na2896  1  0.56666667  0.30000000  0.73333333  1
  Na  Na2897  1  0.56666667  0.30000000  0.93333333  1
  Na  Na2898  1  0.56666667  0.50000000  0.13333333  1
  Na  Na2899  1  0.56666667  0.50000000  0.33333333  1
  Na  Na2900  1  0.56666667  0.50000000  0.53333333  1
  Na  Na2901  1  0.56666667  0.50000000  0.73333333  1
  Na  Na2902  1  0.56666667  0.50000000  0.93333333  1
  Na  Na2903  1  0.56666667  0.70000000  0.13333333  1
  Na  Na2904  1  0.56666667  0.70000000  0.33333333  1
  Na  Na2905  1  0.56666667  0.70000000  0.53333333  1
  Na  Na2906  1  0.56666667  0.70000000  0.73333333  1
  Na  Na2907  1  0.56666667  0.70000000  0.93333333  1
  Na  Na2908  1  0.56666667  0.90000000  0.13333333  1
  Na  Na2909  1  0.56666667  0.90000000  0.33333333  1
  Na  Na2910  1  0.56666667  0.90000000  0.53333333  1
  Na  Na2911  1  0.56666667  0.90000000  0.73333333  1
  Na  Na2912  1  0.56666667  0.90000000  0.93333333  1
  Na  Na2913  1  0.76666667  0.10000000  0.13333333  1
  Na  Na2914  1  0.76666667  0.10000000  0.33333333  1
  Na  Na2915  1  0.76666667  0.10000000  0.53333333  1
  Na  Na2916  1  0.76666667  0.10000000  0.73333333  1
  Na  Na2917  1  0.76666667  0.10000000  0.93333333  1
  Na  Na2918  1  0.76666667  0.30000000  0.13333333  1
  Na  Na2919  1  0.76666667  0.30000000  0.53333333  1
  Na  Na2920  1  0.76666667  0.30000000  0.73333333  1
  Na  Na2921  1  0.76666667  0.30000000  0.93333333  1
  Na  Na2922  1  0.76666667  0.50000000  0.13333333  1
  Na  Na2923  1  0.76666667  0.50000000  0.33333333  1
  Na  Na2924  1  0.76666667  0.50000000  0.53333333  1
  Na  Na2925  1  0.76666667  0.50000000  0.73333333  1
  Na  Na2926  1  0.76666667  0.50000000  0.93333333  1
  Na  Na2927  1  0.76666667  0.70000000  0.13333333  1
  Na  Na2928  1  0.76666667  0.70000000  0.33333333  1
  Na  Na2929  1  0.76666667  0.70000000  0.53333333  1
  Na  Na2930  1  0.76666667  0.70000000  0.73333333  1
  Na  Na2931  1  0.76666667  0.70000000  0.93333333  1
  Na  Na2932  1  0.76666667  0.90000000  0.13333333  1
  Na  Na2933  1  0.76666667  0.90000000  0.33333333  1
  Na  Na2934  1  0.76666667  0.90000000  0.53333333  1
  Na  Na2935  1  0.76666667  0.90000000  0.73333333  1
  Na  Na2936  1  0.76666667  0.90000000  0.93333333  1
  Na  Na2937  1  0.96666667  0.10000000  0.33333333  1
  Na  Na2938  1  0.96666667  0.10000000  0.53333333  1
  Na  Na2939  1  0.96666667  0.10000000  0.73333333  1
  Na  Na2940  1  0.96666667  0.10000000  0.93333333  1
  Na  Na2941  1  0.96666667  0.30000000  0.13333333  1
  Na  Na2942  1  0.96666667  0.30000000  0.33333333  1
  Na  Na2943  1  0.96666667  0.30000000  0.53333333  1
  Na  Na2944  1  0.96666667  0.30000000  0.73333333  1
  Na  Na2945  1  0.96666667  0.30000000  0.93333333  1
  Na  Na2946  1  0.96666667  0.50000000  0.13333333  1
  Na  Na2947  1  0.96666667  0.50000000  0.33333333  1
  Na  Na2948  1  0.96666667  0.50000000  0.53333333  1
  Na  Na2949  1  0.96666667  0.50000000  0.73333333  1
  Na  Na2950  1  0.96666667  0.50000000  0.93333333  1
  Na  Na2951  1  0.96666667  0.70000000  0.13333333  1
  Na  Na2952  1  0.96666667  0.70000000  0.33333333  1
  Na  Na2953  1  0.96666667  0.70000000  0.53333333  1
  Na  Na2954  1  0.96666667  0.70000000  0.73333333  1
  Na  Na2955  1  0.96666667  0.70000000  0.93333333  1
  Na  Na2956  1  0.96666667  0.90000000  0.13333333  1
  Na  Na2957  1  0.96666667  0.90000000  0.33333333  1
  Na  Na2958  1  0.96666667  0.90000000  0.53333333  1
  Na  Na2959  1  0.96666667  0.90000000  0.73333333  1
  Na  Na2960  1  0.96666667  0.90000000  0.93333333  1
  Na  Na2961  1  0.16666667  0.16666667  0.00000000  1
  Na  Na2962  1  0.16666667  0.16666667  0.20000000  1
  Na  Na2963  1  0.16666667  0.16666667  0.40000000  1
  Na  Na2964  1  0.16666667  0.16666667  0.60000000  1
  Na  Na2965  1  0.16666667  0.16666667  0.80000000  1
  Na  Na2966  1  0.16666667  0.36666667  0.00000000  1
  Na  Na2967  1  0.16666667  0.36666667  0.20000000  1
  Na  Na2968  1  0.16666667  0.36666667  0.40000000  1
  Na  Na2969  1  0.16666667  0.36666667  0.60000000  1
  Na  Na2970  1  0.16666667  0.36666667  0.80000000  1
  Na  Na2971  1  0.16666667  0.56666667  0.00000000  1
  Na  Na2972  1  0.16666667  0.56666667  0.20000000  1
  Na  Na2973  1  0.16666667  0.56666667  0.40000000  1
  Na  Na2974  1  0.16666667  0.56666667  0.60000000  1
  Na  Na2975  1  0.16666667  0.56666667  0.80000000  1
  Na  Na2976  1  0.16666667  0.76666667  0.00000000  1
  Na  Na2977  1  0.16666667  0.76666667  0.20000000  1
  Na  Na2978  1  0.16666667  0.76666667  0.40000000  1
  Na  Na2979  1  0.16666667  0.76666667  0.60000000  1
  Na  Na2980  1  0.16666667  0.76666667  0.80000000  1
  Na  Na2981  1  0.16666667  0.96666667  0.00000000  1
  Na  Na2982  1  0.16666667  0.96666667  0.20000000  1
  Na  Na2983  1  0.16666667  0.96666667  0.40000000  1
  Na  Na2984  1  0.16666667  0.96666667  0.60000000  1
  Na  Na2985  1  0.16666667  0.96666667  0.80000000  1
  Na  Na2986  1  0.36666667  0.16666667  0.00000000  1
  Na  Na2987  1  0.36666667  0.16666667  0.20000000  1
  Na  Na2988  1  0.36666667  0.16666667  0.40000000  1
  Na  Na2989  1  0.36666667  0.16666667  0.60000000  1
  Na  Na2990  1  0.36666667  0.16666667  0.80000000  1
  Na  Na2991  1  0.36666667  0.36666667  0.00000000  1
  Na  Na2992  1  0.36666667  0.36666667  0.20000000  1
  Na  Na2993  1  0.36666667  0.36666667  0.40000000  1
  Na  Na2994  1  0.36666667  0.36666667  0.60000000  1
  Na  Na2995  1  0.36666667  0.36666667  0.80000000  1
  Na  Na2996  1  0.36666667  0.56666667  0.00000000  1
  Na  Na2997  1  0.36666667  0.56666667  0.20000000  1
  Na  Na2998  1  0.36666667  0.56666667  0.40000000  1
  Na  Na2999  1  0.36666667  0.56666667  0.60000000  1
  Na  Na3000  1  0.36666667  0.56666667  0.80000000  1
  Na  Na3001  1  0.36666667  0.76666667  0.00000000  1
  Na  Na3002  1  0.36666667  0.76666667  0.20000000  1
  Na  Na3003  1  0.36666667  0.76666667  0.40000000  1
  Na  Na3004  1  0.36666667  0.76666667  0.60000000  1
  Na  Na3005  1  0.36666667  0.76666667  0.80000000  1
  Na  Na3006  1  0.36666667  0.96666667  0.00000000  1
  Na  Na3007  1  0.36666667  0.96666667  0.20000000  1
  Na  Na3008  1  0.36666667  0.96666667  0.40000000  1
  Na  Na3009  1  0.36666667  0.96666667  0.60000000  1
  Na  Na3010  1  0.36666667  0.96666667  0.80000000  1
  Na  Na3011  1  0.56666667  0.16666667  0.00000000  1
  Na  Na3012  1  0.56666667  0.16666667  0.20000000  1
  Na  Na3013  1  0.56666667  0.16666667  0.40000000  1
  Na  Na3014  1  0.56666667  0.16666667  0.60000000  1
  Na  Na3015  1  0.56666667  0.16666667  0.80000000  1
  Na  Na3016  1  0.56666667  0.36666667  0.00000000  1
  Na  Na3017  1  0.56666667  0.36666667  0.20000000  1
  Na  Na3018  1  0.56666667  0.36666667  0.40000000  1
  Na  Na3019  1  0.56666667  0.36666667  0.60000000  1
  Na  Na3020  1  0.56666667  0.36666667  0.80000000  1
  Na  Na3021  1  0.56666667  0.56666667  0.00000000  1
  Na  Na3022  1  0.56666667  0.56666667  0.20000000  1
  Na  Na3023  1  0.56666667  0.56666667  0.40000000  1
  Na  Na3024  1  0.56666667  0.56666667  0.60000000  1
  Na  Na3025  1  0.56666667  0.56666667  0.80000000  1
  Na  Na3026  1  0.56666667  0.76666667  0.00000000  1
  Na  Na3027  1  0.56666667  0.76666667  0.20000000  1
  Na  Na3028  1  0.56666667  0.76666667  0.40000000  1
  Na  Na3029  1  0.56666667  0.76666667  0.60000000  1
  Na  Na3030  1  0.56666667  0.76666667  0.80000000  1
  Na  Na3031  1  0.56666667  0.96666667  0.00000000  1
  Na  Na3032  1  0.56666667  0.96666667  0.20000000  1
  Na  Na3033  1  0.56666667  0.96666667  0.40000000  1
  Na  Na3034  1  0.56666667  0.96666667  0.60000000  1
  Na  Na3035  1  0.56666667  0.96666667  0.80000000  1
  Na  Na3036  1  0.76666667  0.16666667  0.00000000  1
  Na  Na3037  1  0.76666667  0.16666667  0.20000000  1
  Na  Na3038  1  0.76666667  0.16666667  0.40000000  1
  Na  Na3039  1  0.76666667  0.16666667  0.60000000  1
  Na  Na3040  1  0.76666667  0.16666667  0.80000000  1
  Na  Na3041  1  0.76666667  0.36666667  0.00000000  1
  Na  Na3042  1  0.76666667  0.36666667  0.20000000  1
  Na  Na3043  1  0.76666667  0.36666667  0.40000000  1
  Na  Na3044  1  0.76666667  0.36666667  0.60000000  1
  Na  Na3045  1  0.76666667  0.36666667  0.80000000  1
  Na  Na3046  1  0.76666667  0.56666667  0.00000000  1
  Na  Na3047  1  0.76666667  0.56666667  0.20000000  1
  Na  Na3048  1  0.76666667  0.56666667  0.40000000  1
  Na  Na3049  1  0.76666667  0.56666667  0.60000000  1
  Na  Na3050  1  0.76666667  0.56666667  0.80000000  1
  Na  Na3051  1  0.76666667  0.76666667  0.00000000  1
  Na  Na3052  1  0.76666667  0.76666667  0.20000000  1
  Na  Na3053  1  0.76666667  0.76666667  0.40000000  1
  Na  Na3054  1  0.76666667  0.76666667  0.60000000  1
  Na  Na3055  1  0.76666667  0.76666667  0.80000000  1
  Na  Na3056  1  0.76666667  0.96666667  0.00000000  1
  Na  Na3057  1  0.76666667  0.96666667  0.20000000  1
  Na  Na3058  1  0.76666667  0.96666667  0.40000000  1
  Na  Na3059  1  0.76666667  0.96666667  0.60000000  1
  Na  Na3060  1  0.76666667  0.96666667  0.80000000  1
  Na  Na3061  1  0.96666667  0.16666667  0.00000000  1
  Na  Na3062  1  0.96666667  0.16666667  0.20000000  1
  Na  Na3063  1  0.96666667  0.16666667  0.40000000  1
  Na  Na3064  1  0.96666667  0.16666667  0.60000000  1
  Na  Na3065  1  0.96666667  0.16666667  0.80000000  1
  Na  Na3066  1  0.96666667  0.36666667  0.00000000  1
  Na  Na3067  1  0.96666667  0.36666667  0.20000000  1
  Na  Na3068  1  0.96666667  0.36666667  0.40000000  1
  Na  Na3069  1  0.96666667  0.36666667  0.60000000  1
  Na  Na3070  1  0.96666667  0.36666667  0.80000000  1
  Na  Na3071  1  0.96666667  0.56666667  0.00000000  1
  Na  Na3072  1  0.96666667  0.56666667  0.20000000  1
  Na  Na3073  1  0.96666667  0.56666667  0.40000000  1
  Na  Na3074  1  0.96666667  0.56666667  0.60000000  1
  Na  Na3075  1  0.96666667  0.56666667  0.80000000  1
  Na  Na3076  1  0.96666667  0.76666667  0.00000000  1
  Na  Na3077  1  0.96666667  0.76666667  0.20000000  1
  Na  Na3078  1  0.96666667  0.76666667  0.40000000  1
  Na  Na3079  1  0.96666667  0.76666667  0.60000000  1
  Na  Na3080  1  0.96666667  0.76666667  0.80000000  1
  Na  Na3081  1  0.96666667  0.96666667  0.00000000  1
  Na  Na3082  1  0.96666667  0.96666667  0.20000000  1
  Na  Na3083  1  0.96666667  0.96666667  0.40000000  1
  Na  Na3084  1  0.96666667  0.96666667  0.60000000  1
  Na  Na3085  1  0.96666667  0.96666667  0.80000000  1
  Na  Na3086  1  0.16666667  0.16666667  0.06666667  1
  Na  Na3087  1  0.16666667  0.16666667  0.26666667  1
  Na  Na3088  1  0.16666667  0.16666667  0.46666667  1
  Na  Na3089  1  0.16666667  0.16666667  0.66666667  1
  Na  Na3090  1  0.16666667  0.16666667  0.86666667  1
  Na  Na3091  1  0.16666667  0.36666667  0.06666667  1
  Na  Na3092  1  0.16666667  0.36666667  0.26666667  1
  Na  Na3093  1  0.16666667  0.36666667  0.46666667  1
  Na  Na3094  1  0.16666667  0.36666667  0.66666667  1
  Na  Na3095  1  0.16666667  0.36666667  0.86666667  1
  Na  Na3096  1  0.16666667  0.56666667  0.06666667  1
  Na  Na3097  1  0.16666667  0.56666667  0.26666667  1
  Na  Na3098  1  0.16666667  0.56666667  0.46666667  1
  Na  Na3099  1  0.16666667  0.56666667  0.66666667  1
  Na  Na3100  1  0.16666667  0.56666667  0.86666667  1
  Na  Na3101  1  0.16666667  0.76666667  0.06666667  1
  Na  Na3102  1  0.16666667  0.76666667  0.26666667  1
  Na  Na3103  1  0.16666667  0.76666667  0.46666667  1
  Na  Na3104  1  0.16666667  0.76666667  0.66666667  1
  Na  Na3105  1  0.16666667  0.76666667  0.86666667  1
  Na  Na3106  1  0.16666667  0.96666667  0.06666667  1
  Na  Na3107  1  0.16666667  0.96666667  0.26666667  1
  Na  Na3108  1  0.16666667  0.96666667  0.46666667  1
  Na  Na3109  1  0.16666667  0.96666667  0.66666667  1
  Na  Na3110  1  0.16666667  0.96666667  0.86666667  1
  Na  Na3111  1  0.36666667  0.16666667  0.06666667  1
  Na  Na3112  1  0.36666667  0.16666667  0.26666667  1
  Na  Na3113  1  0.36666667  0.16666667  0.46666667  1
  Na  Na3114  1  0.36666667  0.16666667  0.66666667  1
  Na  Na3115  1  0.36666667  0.16666667  0.86666667  1
  Na  Na3116  1  0.36666667  0.36666667  0.06666667  1
  Na  Na3117  1  0.36666667  0.36666667  0.26666667  1
  Na  Na3118  1  0.36666667  0.36666667  0.46666667  1
  Na  Na3119  1  0.36666667  0.36666667  0.66666667  1
  Na  Na3120  1  0.36666667  0.36666667  0.86666667  1
  Na  Na3121  1  0.36666667  0.56666667  0.06666667  1
  Na  Na3122  1  0.36666667  0.56666667  0.26666667  1
  Na  Na3123  1  0.36666667  0.56666667  0.46666667  1
  Na  Na3124  1  0.36666667  0.56666667  0.66666667  1
  Na  Na3125  1  0.36666667  0.56666667  0.86666667  1
  Na  Na3126  1  0.36666667  0.76666667  0.06666667  1
  Na  Na3127  1  0.36666667  0.76666667  0.26666667  1
  Na  Na3128  1  0.36666667  0.76666667  0.46666667  1
  Na  Na3129  1  0.36666667  0.76666667  0.66666667  1
  Na  Na3130  1  0.36666667  0.76666667  0.86666667  1
  Na  Na3131  1  0.36666667  0.96666667  0.06666667  1
  Na  Na3132  1  0.36666667  0.96666667  0.26666667  1
  Na  Na3133  1  0.36666667  0.96666667  0.46666667  1
  Na  Na3134  1  0.36666667  0.96666667  0.66666667  1
  Na  Na3135  1  0.36666667  0.96666667  0.86666667  1
  Na  Na3136  1  0.56666667  0.16666667  0.06666667  1
  Na  Na3137  1  0.56666667  0.16666667  0.26666667  1
  Na  Na3138  1  0.56666667  0.16666667  0.46666667  1
  Na  Na3139  1  0.56666667  0.16666667  0.66666667  1
  Na  Na3140  1  0.56666667  0.16666667  0.86666667  1
  Na  Na3141  1  0.56666667  0.36666667  0.06666667  1
  Na  Na3142  1  0.56666667  0.36666667  0.26666667  1
  Na  Na3143  1  0.56666667  0.36666667  0.46666667  1
  Na  Na3144  1  0.56666667  0.36666667  0.66666667  1
  Na  Na3145  1  0.56666667  0.36666667  0.86666667  1
  Na  Na3146  1  0.56666667  0.56666667  0.06666667  1
  Na  Na3147  1  0.56666667  0.56666667  0.26666667  1
  Na  Na3148  1  0.56666667  0.56666667  0.46666667  1
  Na  Na3149  1  0.56666667  0.56666667  0.66666667  1
  Na  Na3150  1  0.56666667  0.56666667  0.86666667  1
  Na  Na3151  1  0.56666667  0.76666667  0.06666667  1
  Na  Na3152  1  0.56666667  0.76666667  0.26666667  1
  Na  Na3153  1  0.56666667  0.76666667  0.46666667  1
  Na  Na3154  1  0.56666667  0.76666667  0.66666667  1
  Na  Na3155  1  0.56666667  0.76666667  0.86666667  1
  Na  Na3156  1  0.56666667  0.96666667  0.06666667  1
  Na  Na3157  1  0.56666667  0.96666667  0.46666667  1
  Na  Na3158  1  0.56666667  0.96666667  0.86666667  1
  Na  Na3159  1  0.76666667  0.16666667  0.06666667  1
  Na  Na3160  1  0.76666667  0.16666667  0.26666667  1
  Na  Na3161  1  0.76666667  0.16666667  0.46666667  1
  Na  Na3162  1  0.76666667  0.16666667  0.66666667  1
  Na  Na3163  1  0.76666667  0.16666667  0.86666667  1
  Na  Na3164  1  0.76666667  0.36666667  0.06666667  1
  Na  Na3165  1  0.76666667  0.36666667  0.26666667  1
  Na  Na3166  1  0.76666667  0.36666667  0.46666667  1
  Na  Na3167  1  0.76666667  0.36666667  0.66666667  1
  Na  Na3168  1  0.76666667  0.36666667  0.86666667  1
  Na  Na3169  1  0.76666667  0.56666667  0.06666667  1
  Na  Na3170  1  0.76666667  0.56666667  0.26666667  1
  Na  Na3171  1  0.76666667  0.56666667  0.46666667  1
  Na  Na3172  1  0.76666667  0.56666667  0.66666667  1
  Na  Na3173  1  0.76666667  0.56666667  0.86666667  1
  Na  Na3174  1  0.76666667  0.76666667  0.06666667  1
  Na  Na3175  1  0.76666667  0.76666667  0.26666667  1
  Na  Na3176  1  0.76666667  0.76666667  0.46666667  1
  Na  Na3177  1  0.76666667  0.76666667  0.66666667  1
  Na  Na3178  1  0.76666667  0.76666667  0.86666667  1
  Na  Na3179  1  0.76666667  0.96666667  0.06666667  1
  Na  Na3180  1  0.76666667  0.96666667  0.26666667  1
  Na  Na3181  1  0.76666667  0.96666667  0.46666667  1
  Na  Na3182  1  0.76666667  0.96666667  0.66666667  1
  Na  Na3183  1  0.76666667  0.96666667  0.86666667  1
  Na  Na3184  1  0.96666667  0.16666667  0.06666667  1
  Na  Na3185  1  0.96666667  0.16666667  0.26666667  1
  Na  Na3186  1  0.96666667  0.16666667  0.46666667  1
  Na  Na3187  1  0.96666667  0.16666667  0.66666667  1
  Na  Na3188  1  0.96666667  0.16666667  0.86666667  1
  Na  Na3189  1  0.96666667  0.36666667  0.06666667  1
  Na  Na3190  1  0.96666667  0.36666667  0.26666667  1
  Na  Na3191  1  0.96666667  0.36666667  0.46666667  1
  Na  Na3192  1  0.96666667  0.36666667  0.66666667  1
  Na  Na3193  1  0.96666667  0.36666667  0.86666667  1
  Na  Na3194  1  0.96666667  0.56666667  0.06666667  1
  Na  Na3195  1  0.96666667  0.56666667  0.26666667  1
  Na  Na3196  1  0.96666667  0.56666667  0.46666667  1
  Na  Na3197  1  0.96666667  0.56666667  0.66666667  1
  Na  Na3198  1  0.96666667  0.56666667  0.86666667  1
  Na  Na3199  1  0.96666667  0.76666667  0.06666667  1
  Na  Na3200  1  0.96666667  0.76666667  0.26666667  1
  Na  Na3201  1  0.96666667  0.76666667  0.46666667  1
  Na  Na3202  1  0.96666667  0.76666667  0.66666667  1
  Na  Na3203  1  0.96666667  0.76666667  0.86666667  1
  Na  Na3204  1  0.96666667  0.96666667  0.06666667  1
  Na  Na3205  1  0.96666667  0.96666667  0.26666667  1
  Na  Na3206  1  0.96666667  0.96666667  0.46666667  1
  Na  Na3207  1  0.96666667  0.96666667  0.66666667  1
  Na  Na3208  1  0.96666667  0.96666667  0.86666667  1
  Na  Na3209  1  0.16666667  0.16666667  0.13333333  1
  Na  Na3210  1  0.16666667  0.16666667  0.33333333  1
  Na  Na3211  1  0.16666667  0.16666667  0.53333333  1
  Na  Na3212  1  0.16666667  0.16666667  0.73333333  1
  Na  Na3213  1  0.16666667  0.16666667  0.93333333  1
  Na  Na3214  1  0.16666667  0.36666667  0.13333333  1
  Na  Na3215  1  0.16666667  0.36666667  0.33333333  1
  Na  Na3216  1  0.16666667  0.36666667  0.53333333  1
  Na  Na3217  1  0.16666667  0.36666667  0.73333333  1
  Na  Na3218  1  0.16666667  0.36666667  0.93333333  1
  Na  Na3219  1  0.16666667  0.56666667  0.13333333  1
  Na  Na3220  1  0.16666667  0.56666667  0.33333333  1
  Na  Na3221  1  0.16666667  0.56666667  0.73333333  1
  Na  Na3222  1  0.16666667  0.56666667  0.93333333  1
  Na  Na3223  1  0.16666667  0.76666667  0.13333333  1
  Na  Na3224  1  0.16666667  0.76666667  0.33333333  1
  Na  Na3225  1  0.16666667  0.76666667  0.53333333  1
  Na  Na3226  1  0.16666667  0.76666667  0.73333333  1
  Na  Na3227  1  0.16666667  0.76666667  0.93333333  1
  Na  Na3228  1  0.16666667  0.96666667  0.13333333  1
  Na  Na3229  1  0.16666667  0.96666667  0.33333333  1
  Na  Na3230  1  0.16666667  0.96666667  0.53333333  1
  Na  Na3231  1  0.16666667  0.96666667  0.73333333  1
  Na  Na3232  1  0.16666667  0.96666667  0.93333333  1
  Na  Na3233  1  0.36666667  0.16666667  0.13333333  1
  Na  Na3234  1  0.36666667  0.16666667  0.33333333  1
  Na  Na3235  1  0.36666667  0.16666667  0.53333333  1
  Na  Na3236  1  0.36666667  0.16666667  0.73333333  1
  Na  Na3237  1  0.36666667  0.16666667  0.93333333  1
  Na  Na3238  1  0.36666667  0.36666667  0.13333333  1
  Na  Na3239  1  0.36666667  0.36666667  0.33333333  1
  Na  Na3240  1  0.36666667  0.36666667  0.53333333  1
  Na  Na3241  1  0.36666667  0.36666667  0.73333333  1
  Na  Na3242  1  0.36666667  0.36666667  0.93333333  1
  Na  Na3243  1  0.36666667  0.56666667  0.13333333  1
  Na  Na3244  1  0.36666667  0.56666667  0.33333333  1
  Na  Na3245  1  0.36666667  0.56666667  0.53333333  1
  Na  Na3246  1  0.36666667  0.56666667  0.73333333  1
  Na  Na3247  1  0.36666667  0.56666667  0.93333333  1
  Na  Na3248  1  0.36666667  0.76666667  0.13333333  1
  Na  Na3249  1  0.36666667  0.76666667  0.33333333  1
  Na  Na3250  1  0.36666667  0.76666667  0.53333333  1
  Na  Na3251  1  0.36666667  0.76666667  0.73333333  1
  Na  Na3252  1  0.36666667  0.76666667  0.93333333  1
  Na  Na3253  1  0.36666667  0.96666667  0.13333333  1
  Na  Na3254  1  0.36666667  0.96666667  0.33333333  1
  Na  Na3255  1  0.36666667  0.96666667  0.53333333  1
  Na  Na3256  1  0.36666667  0.96666667  0.73333333  1
  Na  Na3257  1  0.36666667  0.96666667  0.93333333  1
  Na  Na3258  1  0.56666667  0.16666667  0.13333333  1
  Na  Na3259  1  0.56666667  0.16666667  0.33333333  1
  Na  Na3260  1  0.56666667  0.16666667  0.53333333  1
  Na  Na3261  1  0.56666667  0.16666667  0.73333333  1
  Na  Na3262  1  0.56666667  0.16666667  0.93333333  1
  Na  Na3263  1  0.56666667  0.36666667  0.13333333  1
  Na  Na3264  1  0.56666667  0.36666667  0.33333333  1
  Na  Na3265  1  0.56666667  0.36666667  0.53333333  1
  Na  Na3266  1  0.56666667  0.36666667  0.73333333  1
  Na  Na3267  1  0.56666667  0.36666667  0.93333333  1
  Na  Na3268  1  0.56666667  0.56666667  0.13333333  1
  Na  Na3269  1  0.56666667  0.56666667  0.33333333  1
  Na  Na3270  1  0.56666667  0.56666667  0.53333333  1
  Na  Na3271  1  0.56666667  0.56666667  0.73333333  1
  Na  Na3272  1  0.56666667  0.56666667  0.93333333  1
  Na  Na3273  1  0.56666667  0.76666667  0.13333333  1
  Na  Na3274  1  0.56666667  0.76666667  0.33333333  1
  Na  Na3275  1  0.56666667  0.76666667  0.53333333  1
  Na  Na3276  1  0.56666667  0.76666667  0.73333333  1
  Na  Na3277  1  0.56666667  0.76666667  0.93333333  1
  Na  Na3278  1  0.56666667  0.96666667  0.13333333  1
  Na  Na3279  1  0.56666667  0.96666667  0.33333333  1
  Na  Na3280  1  0.56666667  0.96666667  0.53333333  1
  Na  Na3281  1  0.56666667  0.96666667  0.73333333  1
  Na  Na3282  1  0.56666667  0.96666667  0.93333333  1
  Na  Na3283  1  0.76666667  0.16666667  0.13333333  1
  Na  Na3284  1  0.76666667  0.16666667  0.33333333  1
  Na  Na3285  1  0.76666667  0.16666667  0.53333333  1
  Na  Na3286  1  0.76666667  0.16666667  0.73333333  1
  Na  Na3287  1  0.76666667  0.16666667  0.93333333  1
  Na  Na3288  1  0.76666667  0.36666667  0.13333333  1
  Na  Na3289  1  0.76666667  0.36666667  0.33333333  1
  Na  Na3290  1  0.76666667  0.36666667  0.53333333  1
  Na  Na3291  1  0.76666667  0.36666667  0.73333333  1
  Na  Na3292  1  0.76666667  0.36666667  0.93333333  1
  Na  Na3293  1  0.76666667  0.56666667  0.13333333  1
  Na  Na3294  1  0.76666667  0.56666667  0.33333333  1
  Na  Na3295  1  0.76666667  0.56666667  0.53333333  1
  Na  Na3296  1  0.76666667  0.56666667  0.73333333  1
  Na  Na3297  1  0.76666667  0.56666667  0.93333333  1
  Na  Na3298  1  0.76666667  0.76666667  0.13333333  1
  Na  Na3299  1  0.76666667  0.76666667  0.33333333  1
  Na  Na3300  1  0.76666667  0.76666667  0.53333333  1
  Na  Na3301  1  0.76666667  0.76666667  0.73333333  1
  Na  Na3302  1  0.76666667  0.76666667  0.93333333  1
  Na  Na3303  1  0.76666667  0.96666667  0.13333333  1
  Na  Na3304  1  0.76666667  0.96666667  0.33333333  1
  Na  Na3305  1  0.76666667  0.96666667  0.53333333  1
  Na  Na3306  1  0.76666667  0.96666667  0.73333333  1
  Na  Na3307  1  0.76666667  0.96666667  0.93333333  1
  Na  Na3308  1  0.96666667  0.16666667  0.13333333  1
  Na  Na3309  1  0.96666667  0.16666667  0.33333333  1
  Na  Na3310  1  0.96666667  0.16666667  0.53333333  1
  Na  Na3311  1  0.96666667  0.16666667  0.73333333  1
  Na  Na3312  1  0.96666667  0.16666667  0.93333333  1
  Na  Na3313  1  0.96666667  0.36666667  0.13333333  1
  Na  Na3314  1  0.96666667  0.36666667  0.33333333  1
  Na  Na3315  1  0.96666667  0.36666667  0.53333333  1
  Na  Na3316  1  0.96666667  0.36666667  0.73333333  1
  Na  Na3317  1  0.96666667  0.36666667  0.93333333  1
  Na  Na3318  1  0.96666667  0.56666667  0.13333333  1
  Na  Na3319  1  0.96666667  0.56666667  0.33333333  1
  Na  Na3320  1  0.96666667  0.56666667  0.53333333  1
  Na  Na3321  1  0.96666667  0.56666667  0.73333333  1
  Na  Na3322  1  0.96666667  0.56666667  0.93333333  1
  Na  Na3323  1  0.96666667  0.76666667  0.13333333  1
  Na  Na3324  1  0.96666667  0.76666667  0.33333333  1
  Na  Na3325  1  0.96666667  0.76666667  0.53333333  1
  Na  Na3326  1  0.96666667  0.76666667  0.73333333  1
  Na  Na3327  1  0.96666667  0.76666667  0.93333333  1
  Na  Na3328  1  0.96666667  0.96666667  0.13333333  1
  Na  Na3329  1  0.96666667  0.96666667  0.33333333  1
  Na  Na3330  1  0.96666667  0.96666667  0.53333333  1
  Na  Na3331  1  0.96666667  0.96666667  0.73333333  1
  Na  Na3332  1  0.96666667  0.96666667  0.93333333  1
  Na  Na3333  1  0.03333333  0.00000000  0.03333333  1
  Na  Na3334  1  0.03333333  0.00000000  0.23333333  1
  Na  Na3335  1  0.03333333  0.00000000  0.43333333  1
  Na  Na3336  1  0.03333333  0.00000000  0.63333333  1
  Na  Na3337  1  0.03333333  0.00000000  0.83333333  1
  Na  Na3338  1  0.03333333  0.20000000  0.03333333  1
  Na  Na3339  1  0.03333333  0.20000000  0.43333333  1
  Na  Na3340  1  0.03333333  0.20000000  0.63333333  1
  Na  Na3341  1  0.03333333  0.20000000  0.83333333  1
  Na  Na3342  1  0.03333333  0.40000000  0.03333333  1
  Na  Na3343  1  0.03333333  0.40000000  0.23333333  1
  Na  Na3344  1  0.03333333  0.40000000  0.43333333  1
  Na  Na3345  1  0.03333333  0.40000000  0.63333333  1
  Na  Na3346  1  0.03333333  0.40000000  0.83333333  1
  Na  Na3347  1  0.03333333  0.60000000  0.03333333  1
  Na  Na3348  1  0.03333333  0.60000000  0.23333333  1
  Na  Na3349  1  0.03333333  0.60000000  0.43333333  1
  Na  Na3350  1  0.03333333  0.60000000  0.63333333  1
  Na  Na3351  1  0.03333333  0.60000000  0.83333333  1
  Na  Na3352  1  0.03333333  0.80000000  0.03333333  1
  Na  Na3353  1  0.03333333  0.80000000  0.23333333  1
  Na  Na3354  1  0.03333333  0.80000000  0.43333333  1
  Na  Na3355  1  0.03333333  0.80000000  0.63333333  1
  Na  Na3356  1  0.03333333  0.80000000  0.83333333  1
  Na  Na3357  1  0.23333333  0.00000000  0.03333333  1
  Na  Na3358  1  0.23333333  0.00000000  0.23333333  1
  Na  Na3359  1  0.23333333  0.00000000  0.43333333  1
  Na  Na3360  1  0.23333333  0.00000000  0.63333333  1
  Na  Na3361  1  0.23333333  0.00000000  0.83333333  1
  Na  Na3362  1  0.23333333  0.20000000  0.03333333  1
  Na  Na3363  1  0.23333333  0.20000000  0.23333333  1
  Na  Na3364  1  0.23333333  0.20000000  0.43333333  1
  Na  Na3365  1  0.23333333  0.20000000  0.63333333  1
  Na  Na3366  1  0.23333333  0.20000000  0.83333333  1
  Na  Na3367  1  0.23333333  0.40000000  0.03333333  1
  Na  Na3368  1  0.23333333  0.40000000  0.23333333  1
  Na  Na3369  1  0.23333333  0.40000000  0.43333333  1
  Na  Na3370  1  0.23333333  0.40000000  0.63333333  1
  Na  Na3371  1  0.23333333  0.40000000  0.83333333  1
  Na  Na3372  1  0.23333333  0.60000000  0.23333333  1
  Na  Na3373  1  0.23333333  0.60000000  0.43333333  1
  Na  Na3374  1  0.23333333  0.60000000  0.63333333  1
  Na  Na3375  1  0.23333333  0.60000000  0.83333333  1
  Na  Na3376  1  0.23333333  0.80000000  0.03333333  1
  Na  Na3377  1  0.23333333  0.80000000  0.23333333  1
  Na  Na3378  1  0.23333333  0.80000000  0.43333333  1
  Na  Na3379  1  0.23333333  0.80000000  0.63333333  1
  Na  Na3380  1  0.23333333  0.80000000  0.83333333  1
  Na  Na3381  1  0.43333333  0.00000000  0.03333333  1
  Na  Na3382  1  0.43333333  0.00000000  0.23333333  1
  Na  Na3383  1  0.43333333  0.00000000  0.43333333  1
  Na  Na3384  1  0.43333333  0.00000000  0.63333333  1
  Na  Na3385  1  0.43333333  0.00000000  0.83333333  1
  Na  Na3386  1  0.43333333  0.20000000  0.03333333  1
  Na  Na3387  1  0.43333333  0.20000000  0.23333333  1
  Na  Na3388  1  0.43333333  0.20000000  0.43333333  1
  Na  Na3389  1  0.43333333  0.20000000  0.63333333  1
  Na  Na3390  1  0.43333333  0.20000000  0.83333333  1
  Na  Na3391  1  0.43333333  0.40000000  0.03333333  1
  Na  Na3392  1  0.43333333  0.40000000  0.23333333  1
  Na  Na3393  1  0.43333333  0.40000000  0.43333333  1
  Na  Na3394  1  0.43333333  0.40000000  0.63333333  1
  Na  Na3395  1  0.43333333  0.40000000  0.83333333  1
  Na  Na3396  1  0.43333333  0.60000000  0.03333333  1
  Na  Na3397  1  0.43333333  0.60000000  0.23333333  1
  Na  Na3398  1  0.43333333  0.60000000  0.43333333  1
  Na  Na3399  1  0.43333333  0.60000000  0.63333333  1
  Na  Na3400  1  0.43333333  0.60000000  0.83333333  1
  Na  Na3401  1  0.43333333  0.80000000  0.03333333  1
  Na  Na3402  1  0.43333333  0.80000000  0.23333333  1
  Na  Na3403  1  0.43333333  0.80000000  0.43333333  1
  Na  Na3404  1  0.43333333  0.80000000  0.63333333  1
  Na  Na3405  1  0.43333333  0.80000000  0.83333333  1
  Na  Na3406  1  0.63333333  0.00000000  0.03333333  1
  Na  Na3407  1  0.63333333  0.00000000  0.23333333  1
  Na  Na3408  1  0.63333333  0.00000000  0.43333333  1
  Na  Na3409  1  0.63333333  0.00000000  0.63333333  1
  Na  Na3410  1  0.63333333  0.00000000  0.83333333  1
  Na  Na3411  1  0.63333333  0.20000000  0.03333333  1
  Na  Na3412  1  0.63333333  0.20000000  0.23333333  1
  Na  Na3413  1  0.63333333  0.20000000  0.43333333  1
  Na  Na3414  1  0.63333333  0.20000000  0.63333333  1
  Na  Na3415  1  0.63333333  0.20000000  0.83333333  1
  Na  Na3416  1  0.63333333  0.40000000  0.03333333  1
  Na  Na3417  1  0.63333333  0.40000000  0.23333333  1
  Na  Na3418  1  0.63333333  0.40000000  0.43333333  1
  Na  Na3419  1  0.63333333  0.40000000  0.63333333  1
  Na  Na3420  1  0.63333333  0.40000000  0.83333333  1
  Na  Na3421  1  0.63333333  0.60000000  0.03333333  1
  Na  Na3422  1  0.63333333  0.60000000  0.23333333  1
  Na  Na3423  1  0.63333333  0.60000000  0.43333333  1
  Na  Na3424  1  0.63333333  0.60000000  0.63333333  1
  Na  Na3425  1  0.63333333  0.60000000  0.83333333  1
  Na  Na3426  1  0.63333333  0.80000000  0.03333333  1
  Na  Na3427  1  0.63333333  0.80000000  0.23333333  1
  Na  Na3428  1  0.63333333  0.80000000  0.43333333  1
  Na  Na3429  1  0.63333333  0.80000000  0.63333333  1
  Na  Na3430  1  0.63333333  0.80000000  0.83333333  1
  Na  Na3431  1  0.83333333  0.00000000  0.03333333  1
  Na  Na3432  1  0.83333333  0.00000000  0.23333333  1
  Na  Na3433  1  0.83333333  0.00000000  0.43333333  1
  Na  Na3434  1  0.83333333  0.00000000  0.63333333  1
  Na  Na3435  1  0.83333333  0.00000000  0.83333333  1
  Na  Na3436  1  0.83333333  0.20000000  0.03333333  1
  Na  Na3437  1  0.83333333  0.20000000  0.23333333  1
  Na  Na3438  1  0.83333333  0.20000000  0.43333333  1
  Na  Na3439  1  0.83333333  0.20000000  0.63333333  1
  Na  Na3440  1  0.83333333  0.20000000  0.83333333  1
  Na  Na3441  1  0.83333333  0.40000000  0.03333333  1
  Na  Na3442  1  0.83333333  0.40000000  0.23333333  1
  Na  Na3443  1  0.83333333  0.40000000  0.43333333  1
  Na  Na3444  1  0.83333333  0.40000000  0.63333333  1
  Na  Na3445  1  0.83333333  0.40000000  0.83333333  1
  Na  Na3446  1  0.83333333  0.60000000  0.03333333  1
  Na  Na3447  1  0.83333333  0.60000000  0.23333333  1
  Na  Na3448  1  0.83333333  0.60000000  0.43333333  1
  Na  Na3449  1  0.83333333  0.60000000  0.63333333  1
  Na  Na3450  1  0.83333333  0.60000000  0.83333333  1
  Na  Na3451  1  0.83333333  0.80000000  0.03333333  1
  Na  Na3452  1  0.83333333  0.80000000  0.23333333  1
  Na  Na3453  1  0.83333333  0.80000000  0.43333333  1
  Na  Na3454  1  0.83333333  0.80000000  0.63333333  1
  Na  Na3455  1  0.83333333  0.80000000  0.83333333  1
  Na  Na3456  1  0.03333333  0.00000000  0.10000000  1
  Na  Na3457  1  0.03333333  0.00000000  0.30000000  1
  Na  Na3458  1  0.03333333  0.00000000  0.50000000  1
  Na  Na3459  1  0.03333333  0.00000000  0.70000000  1
  Na  Na3460  1  0.03333333  0.00000000  0.90000000  1
  Na  Na3461  1  0.03333333  0.20000000  0.10000000  1
  Na  Na3462  1  0.03333333  0.20000000  0.30000000  1
  Na  Na3463  1  0.03333333  0.20000000  0.50000000  1
  Na  Na3464  1  0.03333333  0.20000000  0.70000000  1
  Na  Na3465  1  0.03333333  0.20000000  0.90000000  1
  Na  Na3466  1  0.03333333  0.40000000  0.10000000  1
  Na  Na3467  1  0.03333333  0.40000000  0.30000000  1
  Na  Na3468  1  0.03333333  0.40000000  0.50000000  1
  Na  Na3469  1  0.03333333  0.40000000  0.70000000  1
  Na  Na3470  1  0.03333333  0.40000000  0.90000000  1
  Na  Na3471  1  0.03333333  0.60000000  0.10000000  1
  Na  Na3472  1  0.03333333  0.60000000  0.30000000  1
  Na  Na3473  1  0.03333333  0.60000000  0.50000000  1
  Na  Na3474  1  0.03333333  0.60000000  0.70000000  1
  Na  Na3475  1  0.03333333  0.60000000  0.90000000  1
  Na  Na3476  1  0.03333333  0.80000000  0.10000000  1
  Na  Na3477  1  0.03333333  0.80000000  0.30000000  1
  Na  Na3478  1  0.03333333  0.80000000  0.50000000  1
  Na  Na3479  1  0.03333333  0.80000000  0.70000000  1
  Na  Na3480  1  0.03333333  0.80000000  0.90000000  1
  Na  Na3481  1  0.23333333  0.00000000  0.10000000  1
  Na  Na3482  1  0.23333333  0.00000000  0.30000000  1
  Na  Na3483  1  0.23333333  0.00000000  0.50000000  1
  Na  Na3484  1  0.23333333  0.00000000  0.70000000  1
  Na  Na3485  1  0.23333333  0.00000000  0.90000000  1
  Na  Na3486  1  0.23333333  0.20000000  0.10000000  1
  Na  Na3487  1  0.23333333  0.20000000  0.30000000  1
  Na  Na3488  1  0.23333333  0.20000000  0.50000000  1
  Na  Na3489  1  0.23333333  0.20000000  0.70000000  1
  Na  Na3490  1  0.23333333  0.20000000  0.90000000  1
  Na  Na3491  1  0.23333333  0.40000000  0.10000000  1
  Na  Na3492  1  0.23333333  0.40000000  0.30000000  1
  Na  Na3493  1  0.23333333  0.40000000  0.50000000  1
  Na  Na3494  1  0.23333333  0.40000000  0.70000000  1
  Na  Na3495  1  0.23333333  0.40000000  0.90000000  1
  Na  Na3496  1  0.23333333  0.60000000  0.10000000  1
  Na  Na3497  1  0.23333333  0.60000000  0.30000000  1
  Na  Na3498  1  0.23333333  0.60000000  0.50000000  1
  Na  Na3499  1  0.23333333  0.60000000  0.70000000  1
  Na  Na3500  1  0.23333333  0.60000000  0.90000000  1
  Na  Na3501  1  0.23333333  0.80000000  0.10000000  1
  Na  Na3502  1  0.23333333  0.80000000  0.30000000  1
  Na  Na3503  1  0.23333333  0.80000000  0.50000000  1
  Na  Na3504  1  0.23333333  0.80000000  0.70000000  1
  Na  Na3505  1  0.23333333  0.80000000  0.90000000  1
  Na  Na3506  1  0.43333333  0.00000000  0.10000000  1
  Na  Na3507  1  0.43333333  0.00000000  0.30000000  1
  Na  Na3508  1  0.43333333  0.00000000  0.50000000  1
  Na  Na3509  1  0.43333333  0.00000000  0.70000000  1
  Na  Na3510  1  0.43333333  0.00000000  0.90000000  1
  Na  Na3511  1  0.43333333  0.20000000  0.10000000  1
  Na  Na3512  1  0.43333333  0.20000000  0.30000000  1
  Na  Na3513  1  0.43333333  0.20000000  0.50000000  1
  Na  Na3514  1  0.43333333  0.20000000  0.70000000  1
  Na  Na3515  1  0.43333333  0.20000000  0.90000000  1
  Na  Na3516  1  0.43333333  0.40000000  0.10000000  1
  Na  Na3517  1  0.43333333  0.40000000  0.30000000  1
  Na  Na3518  1  0.43333333  0.40000000  0.50000000  1
  Na  Na3519  1  0.43333333  0.40000000  0.70000000  1
  Na  Na3520  1  0.43333333  0.40000000  0.90000000  1
  Na  Na3521  1  0.43333333  0.60000000  0.10000000  1
  Na  Na3522  1  0.43333333  0.60000000  0.30000000  1
  Na  Na3523  1  0.43333333  0.60000000  0.50000000  1
  Na  Na3524  1  0.43333333  0.60000000  0.70000000  1
  Na  Na3525  1  0.43333333  0.60000000  0.90000000  1
  Na  Na3526  1  0.43333333  0.80000000  0.10000000  1
  Na  Na3527  1  0.43333333  0.80000000  0.30000000  1
  Na  Na3528  1  0.43333333  0.80000000  0.50000000  1
  Na  Na3529  1  0.43333333  0.80000000  0.70000000  1
  Na  Na3530  1  0.43333333  0.80000000  0.90000000  1
  Na  Na3531  1  0.63333333  0.00000000  0.10000000  1
  Na  Na3532  1  0.63333333  0.00000000  0.30000000  1
  Na  Na3533  1  0.63333333  0.00000000  0.50000000  1
  Na  Na3534  1  0.63333333  0.00000000  0.70000000  1
  Na  Na3535  1  0.63333333  0.20000000  0.10000000  1
  Na  Na3536  1  0.63333333  0.20000000  0.30000000  1
  Na  Na3537  1  0.63333333  0.20000000  0.50000000  1
  Na  Na3538  1  0.63333333  0.20000000  0.70000000  1
  Na  Na3539  1  0.63333333  0.20000000  0.90000000  1
  Na  Na3540  1  0.63333333  0.40000000  0.10000000  1
  Na  Na3541  1  0.63333333  0.40000000  0.30000000  1
  Na  Na3542  1  0.63333333  0.40000000  0.50000000  1
  Na  Na3543  1  0.63333333  0.40000000  0.70000000  1
  Na  Na3544  1  0.63333333  0.40000000  0.90000000  1
  Na  Na3545  1  0.63333333  0.60000000  0.10000000  1
  Na  Na3546  1  0.63333333  0.60000000  0.30000000  1
  Na  Na3547  1  0.63333333  0.60000000  0.50000000  1
  Na  Na3548  1  0.63333333  0.60000000  0.70000000  1
  Na  Na3549  1  0.63333333  0.60000000  0.90000000  1
  Na  Na3550  1  0.63333333  0.80000000  0.10000000  1
  Na  Na3551  1  0.63333333  0.80000000  0.30000000  1
  Na  Na3552  1  0.63333333  0.80000000  0.50000000  1
  Na  Na3553  1  0.63333333  0.80000000  0.70000000  1
  Na  Na3554  1  0.63333333  0.80000000  0.90000000  1
  Na  Na3555  1  0.83333333  0.00000000  0.10000000  1
  Na  Na3556  1  0.83333333  0.00000000  0.30000000  1
  Na  Na3557  1  0.83333333  0.00000000  0.50000000  1
  Na  Na3558  1  0.83333333  0.00000000  0.70000000  1
  Na  Na3559  1  0.83333333  0.00000000  0.90000000  1
  Na  Na3560  1  0.83333333  0.20000000  0.10000000  1
  Na  Na3561  1  0.83333333  0.20000000  0.30000000  1
  Na  Na3562  1  0.83333333  0.20000000  0.50000000  1
  Na  Na3563  1  0.83333333  0.20000000  0.70000000  1
  Na  Na3564  1  0.83333333  0.20000000  0.90000000  1
  Na  Na3565  1  0.83333333  0.40000000  0.10000000  1
  Na  Na3566  1  0.83333333  0.40000000  0.30000000  1
  Na  Na3567  1  0.83333333  0.40000000  0.50000000  1
  Na  Na3568  1  0.83333333  0.40000000  0.70000000  1
  Na  Na3569  1  0.83333333  0.40000000  0.90000000  1
  Na  Na3570  1  0.83333333  0.60000000  0.10000000  1
  Na  Na3571  1  0.83333333  0.60000000  0.30000000  1
  Na  Na3572  1  0.83333333  0.60000000  0.50000000  1
  Na  Na3573  1  0.83333333  0.60000000  0.70000000  1
  Na  Na3574  1  0.83333333  0.60000000  0.90000000  1
  Na  Na3575  1  0.83333333  0.80000000  0.10000000  1
  Na  Na3576  1  0.83333333  0.80000000  0.30000000  1
  Na  Na3577  1  0.83333333  0.80000000  0.50000000  1
  Na  Na3578  1  0.83333333  0.80000000  0.70000000  1
  Na  Na3579  1  0.83333333  0.80000000  0.90000000  1
  Na  Na3580  1  0.03333333  0.00000000  0.16666667  1
  Na  Na3581  1  0.03333333  0.00000000  0.36666667  1
  Na  Na3582  1  0.03333333  0.00000000  0.56666667  1
  Na  Na3583  1  0.03333333  0.00000000  0.76666667  1
  Na  Na3584  1  0.03333333  0.00000000  0.96666667  1
  Na  Na3585  1  0.03333333  0.20000000  0.16666667  1
  Na  Na3586  1  0.03333333  0.20000000  0.36666667  1
  Na  Na3587  1  0.03333333  0.20000000  0.56666667  1
  Na  Na3588  1  0.03333333  0.20000000  0.76666667  1
  Na  Na3589  1  0.03333333  0.20000000  0.96666667  1
  Na  Na3590  1  0.03333333  0.40000000  0.16666667  1
  Na  Na3591  1  0.03333333  0.40000000  0.36666667  1
  Na  Na3592  1  0.03333333  0.40000000  0.56666667  1
  Na  Na3593  1  0.03333333  0.40000000  0.76666667  1
  Na  Na3594  1  0.03333333  0.40000000  0.96666667  1
  Na  Na3595  1  0.03333333  0.60000000  0.16666667  1
  Na  Na3596  1  0.03333333  0.60000000  0.36666667  1
  Na  Na3597  1  0.03333333  0.60000000  0.56666667  1
  Na  Na3598  1  0.03333333  0.60000000  0.76666667  1
  Na  Na3599  1  0.03333333  0.60000000  0.96666667  1
  Na  Na3600  1  0.03333333  0.80000000  0.16666667  1
  Na  Na3601  1  0.03333333  0.80000000  0.36666667  1
  Na  Na3602  1  0.03333333  0.80000000  0.56666667  1
  Na  Na3603  1  0.03333333  0.80000000  0.76666667  1
  Na  Na3604  1  0.03333333  0.80000000  0.96666667  1
  Na  Na3605  1  0.23333333  0.00000000  0.16666667  1
  Na  Na3606  1  0.23333333  0.00000000  0.36666667  1
  Na  Na3607  1  0.23333333  0.00000000  0.56666667  1
  Na  Na3608  1  0.23333333  0.00000000  0.76666667  1
  Na  Na3609  1  0.23333333  0.00000000  0.96666667  1
  Na  Na3610  1  0.23333333  0.20000000  0.16666667  1
  Na  Na3611  1  0.23333333  0.20000000  0.36666667  1
  Na  Na3612  1  0.23333333  0.20000000  0.56666667  1
  Na  Na3613  1  0.23333333  0.20000000  0.76666667  1
  Na  Na3614  1  0.23333333  0.20000000  0.96666667  1
  Na  Na3615  1  0.23333333  0.40000000  0.16666667  1
  Na  Na3616  1  0.23333333  0.40000000  0.36666667  1
  Na  Na3617  1  0.23333333  0.40000000  0.56666667  1
  Na  Na3618  1  0.23333333  0.40000000  0.76666667  1
  Na  Na3619  1  0.23333333  0.40000000  0.96666667  1
  Na  Na3620  1  0.23333333  0.60000000  0.16666667  1
  Na  Na3621  1  0.23333333  0.60000000  0.36666667  1
  Na  Na3622  1  0.23333333  0.60000000  0.56666667  1
  Na  Na3623  1  0.23333333  0.60000000  0.76666667  1
  Na  Na3624  1  0.23333333  0.60000000  0.96666667  1
  Na  Na3625  1  0.23333333  0.80000000  0.16666667  1
  Na  Na3626  1  0.23333333  0.80000000  0.36666667  1
  Na  Na3627  1  0.23333333  0.80000000  0.56666667  1
  Na  Na3628  1  0.23333333  0.80000000  0.76666667  1
  Na  Na3629  1  0.23333333  0.80000000  0.96666667  1
  Na  Na3630  1  0.43333333  0.00000000  0.16666667  1
  Na  Na3631  1  0.43333333  0.00000000  0.36666667  1
  Na  Na3632  1  0.43333333  0.00000000  0.56666667  1
  Na  Na3633  1  0.43333333  0.00000000  0.76666667  1
  Na  Na3634  1  0.43333333  0.00000000  0.96666667  1
  Na  Na3635  1  0.43333333  0.20000000  0.16666667  1
  Na  Na3636  1  0.43333333  0.20000000  0.36666667  1
  Na  Na3637  1  0.43333333  0.20000000  0.56666667  1
  Na  Na3638  1  0.43333333  0.20000000  0.76666667  1
  Na  Na3639  1  0.43333333  0.20000000  0.96666667  1
  Na  Na3640  1  0.43333333  0.40000000  0.16666667  1
  Na  Na3641  1  0.43333333  0.40000000  0.36666667  1
  Na  Na3642  1  0.43333333  0.40000000  0.56666667  1
  Na  Na3643  1  0.43333333  0.40000000  0.76666667  1
  Na  Na3644  1  0.43333333  0.40000000  0.96666667  1
  Na  Na3645  1  0.43333333  0.60000000  0.16666667  1
  Na  Na3646  1  0.43333333  0.60000000  0.36666667  1
  Na  Na3647  1  0.43333333  0.60000000  0.56666667  1
  Na  Na3648  1  0.43333333  0.60000000  0.76666667  1
  Na  Na3649  1  0.43333333  0.60000000  0.96666667  1
  Na  Na3650  1  0.43333333  0.80000000  0.16666667  1
  Na  Na3651  1  0.43333333  0.80000000  0.36666667  1
  Na  Na3652  1  0.43333333  0.80000000  0.56666667  1
  Na  Na3653  1  0.43333333  0.80000000  0.76666667  1
  Na  Na3654  1  0.43333333  0.80000000  0.96666667  1
  Na  Na3655  1  0.63333333  0.00000000  0.16666667  1
  Na  Na3656  1  0.63333333  0.00000000  0.36666667  1
  Na  Na3657  1  0.63333333  0.00000000  0.56666667  1
  Na  Na3658  1  0.63333333  0.00000000  0.76666667  1
  Na  Na3659  1  0.63333333  0.00000000  0.96666667  1
  Na  Na3660  1  0.63333333  0.20000000  0.16666667  1
  Na  Na3661  1  0.63333333  0.20000000  0.36666667  1
  Na  Na3662  1  0.63333333  0.20000000  0.56666667  1
  Na  Na3663  1  0.63333333  0.20000000  0.76666667  1
  Na  Na3664  1  0.63333333  0.20000000  0.96666667  1
  Na  Na3665  1  0.63333333  0.40000000  0.16666667  1
  Na  Na3666  1  0.63333333  0.40000000  0.36666667  1
  Na  Na3667  1  0.63333333  0.40000000  0.56666667  1
  Na  Na3668  1  0.63333333  0.40000000  0.76666667  1
  Na  Na3669  1  0.63333333  0.60000000  0.16666667  1
  Na  Na3670  1  0.63333333  0.60000000  0.36666667  1
  Na  Na3671  1  0.63333333  0.60000000  0.56666667  1
  Na  Na3672  1  0.63333333  0.60000000  0.76666667  1
  Na  Na3673  1  0.63333333  0.60000000  0.96666667  1
  Na  Na3674  1  0.63333333  0.80000000  0.16666667  1
  Na  Na3675  1  0.63333333  0.80000000  0.36666667  1
  Na  Na3676  1  0.63333333  0.80000000  0.56666667  1
  Na  Na3677  1  0.63333333  0.80000000  0.76666667  1
  Na  Na3678  1  0.63333333  0.80000000  0.96666667  1
  Na  Na3679  1  0.83333333  0.00000000  0.16666667  1
  Na  Na3680  1  0.83333333  0.00000000  0.36666667  1
  Na  Na3681  1  0.83333333  0.00000000  0.56666667  1
  Na  Na3682  1  0.83333333  0.00000000  0.76666667  1
  Na  Na3683  1  0.83333333  0.00000000  0.96666667  1
  Na  Na3684  1  0.83333333  0.20000000  0.16666667  1
  Na  Na3685  1  0.83333333  0.20000000  0.36666667  1
  Na  Na3686  1  0.83333333  0.20000000  0.56666667  1
  Na  Na3687  1  0.83333333  0.20000000  0.76666667  1
  Na  Na3688  1  0.83333333  0.20000000  0.96666667  1
  Na  Na3689  1  0.83333333  0.40000000  0.16666667  1
  Na  Na3690  1  0.83333333  0.40000000  0.36666667  1
  Na  Na3691  1  0.83333333  0.40000000  0.56666667  1
  Na  Na3692  1  0.83333333  0.40000000  0.76666667  1
  Na  Na3693  1  0.83333333  0.40000000  0.96666667  1
  Na  Na3694  1  0.83333333  0.60000000  0.16666667  1
  Na  Na3695  1  0.83333333  0.60000000  0.36666667  1
  Na  Na3696  1  0.83333333  0.60000000  0.56666667  1
  Na  Na3697  1  0.83333333  0.60000000  0.76666667  1
  Na  Na3698  1  0.83333333  0.60000000  0.96666667  1
  Na  Na3699  1  0.83333333  0.80000000  0.16666667  1
  Na  Na3700  1  0.83333333  0.80000000  0.36666667  1
  Na  Na3701  1  0.83333333  0.80000000  0.56666667  1
  Na  Na3702  1  0.83333333  0.80000000  0.76666667  1
  Na  Na3703  1  0.83333333  0.80000000  0.96666667  1
  Na  Na3704  1  0.03333333  0.06666667  0.03333333  1
  Na  Na3705  1  0.03333333  0.06666667  0.23333333  1
  Na  Na3706  1  0.03333333  0.06666667  0.43333333  1
  Na  Na3707  1  0.03333333  0.06666667  0.63333333  1
  Na  Na3708  1  0.03333333  0.06666667  0.83333333  1
  Na  Na3709  1  0.03333333  0.26666667  0.03333333  1
  Na  Na3710  1  0.03333333  0.26666667  0.23333333  1
  Na  Na3711  1  0.03333333  0.26666667  0.43333333  1
  Na  Na3712  1  0.03333333  0.26666667  0.63333333  1
  Na  Na3713  1  0.03333333  0.26666667  0.83333333  1
  Na  Na3714  1  0.03333333  0.46666667  0.03333333  1
  Na  Na3715  1  0.03333333  0.46666667  0.23333333  1
  Na  Na3716  1  0.03333333  0.46666667  0.43333333  1
  Na  Na3717  1  0.03333333  0.46666667  0.63333333  1
  Na  Na3718  1  0.03333333  0.46666667  0.83333333  1
  Na  Na3719  1  0.03333333  0.66666667  0.03333333  1
  Na  Na3720  1  0.03333333  0.66666667  0.23333333  1
  Na  Na3721  1  0.03333333  0.66666667  0.43333333  1
  Na  Na3722  1  0.03333333  0.66666667  0.63333333  1
  Na  Na3723  1  0.03333333  0.66666667  0.83333333  1
  Na  Na3724  1  0.03333333  0.86666667  0.03333333  1
  Na  Na3725  1  0.03333333  0.86666667  0.23333333  1
  Na  Na3726  1  0.03333333  0.86666667  0.43333333  1
  Na  Na3727  1  0.03333333  0.86666667  0.63333333  1
  Na  Na3728  1  0.03333333  0.86666667  0.83333333  1
  Na  Na3729  1  0.23333333  0.06666667  0.03333333  1
  Na  Na3730  1  0.23333333  0.06666667  0.23333333  1
  Na  Na3731  1  0.23333333  0.06666667  0.63333333  1
  Na  Na3732  1  0.23333333  0.06666667  0.83333333  1
  Na  Na3733  1  0.23333333  0.26666667  0.03333333  1
  Na  Na3734  1  0.23333333  0.26666667  0.23333333  1
  Na  Na3735  1  0.23333333  0.26666667  0.43333333  1
  Na  Na3736  1  0.23333333  0.26666667  0.63333333  1
  Na  Na3737  1  0.23333333  0.26666667  0.83333333  1
  Na  Na3738  1  0.23333333  0.46666667  0.03333333  1
  Na  Na3739  1  0.23333333  0.46666667  0.23333333  1
  Na  Na3740  1  0.23333333  0.46666667  0.43333333  1
  Na  Na3741  1  0.23333333  0.46666667  0.63333333  1
  Na  Na3742  1  0.23333333  0.46666667  0.83333333  1
  Na  Na3743  1  0.23333333  0.66666667  0.03333333  1
  Na  Na3744  1  0.23333333  0.66666667  0.23333333  1
  Na  Na3745  1  0.23333333  0.66666667  0.43333333  1
  Na  Na3746  1  0.23333333  0.66666667  0.63333333  1
  Na  Na3747  1  0.23333333  0.66666667  0.83333333  1
  Na  Na3748  1  0.23333333  0.86666667  0.03333333  1
  Na  Na3749  1  0.23333333  0.86666667  0.23333333  1
  Na  Na3750  1  0.23333333  0.86666667  0.43333333  1
  Na  Na3751  1  0.23333333  0.86666667  0.63333333  1
  Na  Na3752  1  0.23333333  0.86666667  0.83333333  1
  Na  Na3753  1  0.43333333  0.06666667  0.03333333  1
  Na  Na3754  1  0.43333333  0.06666667  0.23333333  1
  Na  Na3755  1  0.43333333  0.06666667  0.43333333  1
  Na  Na3756  1  0.43333333  0.06666667  0.63333333  1
  Na  Na3757  1  0.43333333  0.06666667  0.83333333  1
  Na  Na3758  1  0.43333333  0.26666667  0.03333333  1
  Na  Na3759  1  0.43333333  0.26666667  0.23333333  1
  Na  Na3760  1  0.43333333  0.26666667  0.43333333  1
  Na  Na3761  1  0.43333333  0.26666667  0.63333333  1
  Na  Na3762  1  0.43333333  0.26666667  0.83333333  1
  Na  Na3763  1  0.43333333  0.46666667  0.03333333  1
  Na  Na3764  1  0.43333333  0.46666667  0.23333333  1
  Na  Na3765  1  0.43333333  0.46666667  0.43333333  1
  Na  Na3766  1  0.43333333  0.46666667  0.63333333  1
  Na  Na3767  1  0.43333333  0.46666667  0.83333333  1
  Na  Na3768  1  0.43333333  0.66666667  0.03333333  1
  Na  Na3769  1  0.43333333  0.66666667  0.23333333  1
  Na  Na3770  1  0.43333333  0.66666667  0.43333333  1
  Na  Na3771  1  0.43333333  0.66666667  0.63333333  1
  Na  Na3772  1  0.43333333  0.66666667  0.83333333  1
  Na  Na3773  1  0.43333333  0.86666667  0.03333333  1
  Na  Na3774  1  0.43333333  0.86666667  0.23333333  1
  Na  Na3775  1  0.43333333  0.86666667  0.43333333  1
  Na  Na3776  1  0.43333333  0.86666667  0.63333333  1
  Na  Na3777  1  0.43333333  0.86666667  0.83333333  1
  Na  Na3778  1  0.63333333  0.06666667  0.03333333  1
  Na  Na3779  1  0.63333333  0.06666667  0.23333333  1
  Na  Na3780  1  0.63333333  0.06666667  0.43333333  1
  Na  Na3781  1  0.63333333  0.06666667  0.63333333  1
  Na  Na3782  1  0.63333333  0.06666667  0.83333333  1
  Na  Na3783  1  0.63333333  0.26666667  0.03333333  1
  Na  Na3784  1  0.63333333  0.26666667  0.23333333  1
  Na  Na3785  1  0.63333333  0.26666667  0.43333333  1
  Na  Na3786  1  0.63333333  0.26666667  0.63333333  1
  Na  Na3787  1  0.63333333  0.26666667  0.83333333  1
  Na  Na3788  1  0.63333333  0.46666667  0.03333333  1
  Na  Na3789  1  0.63333333  0.46666667  0.23333333  1
  Na  Na3790  1  0.63333333  0.46666667  0.43333333  1
  Na  Na3791  1  0.63333333  0.46666667  0.63333333  1
  Na  Na3792  1  0.63333333  0.46666667  0.83333333  1
  Na  Na3793  1  0.63333333  0.66666667  0.03333333  1
  Na  Na3794  1  0.63333333  0.66666667  0.23333333  1
  Na  Na3795  1  0.63333333  0.66666667  0.43333333  1
  Na  Na3796  1  0.63333333  0.66666667  0.63333333  1
  Na  Na3797  1  0.63333333  0.66666667  0.83333333  1
  Na  Na3798  1  0.63333333  0.86666667  0.03333333  1
  Na  Na3799  1  0.63333333  0.86666667  0.23333333  1
  Na  Na3800  1  0.63333333  0.86666667  0.43333333  1
  Na  Na3801  1  0.63333333  0.86666667  0.63333333  1
  Na  Na3802  1  0.63333333  0.86666667  0.83333333  1
  Na  Na3803  1  0.83333333  0.06666667  0.03333333  1
  Na  Na3804  1  0.83333333  0.06666667  0.23333333  1
  Na  Na3805  1  0.83333333  0.06666667  0.43333333  1
  Na  Na3806  1  0.83333333  0.06666667  0.63333333  1
  Na  Na3807  1  0.83333333  0.06666667  0.83333333  1
  Na  Na3808  1  0.83333333  0.26666667  0.03333333  1
  Na  Na3809  1  0.83333333  0.26666667  0.23333333  1
  Na  Na3810  1  0.83333333  0.26666667  0.43333333  1
  Na  Na3811  1  0.83333333  0.26666667  0.63333333  1
  Na  Na3812  1  0.83333333  0.26666667  0.83333333  1
  Na  Na3813  1  0.83333333  0.46666667  0.03333333  1
  Na  Na3814  1  0.83333333  0.46666667  0.23333333  1
  Na  Na3815  1  0.83333333  0.46666667  0.43333333  1
  Na  Na3816  1  0.83333333  0.46666667  0.63333333  1
  Na  Na3817  1  0.83333333  0.46666667  0.83333333  1
  Na  Na3818  1  0.83333333  0.66666667  0.03333333  1
  Na  Na3819  1  0.83333333  0.66666667  0.23333333  1
  Na  Na3820  1  0.83333333  0.66666667  0.43333333  1
  Na  Na3821  1  0.83333333  0.66666667  0.63333333  1
  Na  Na3822  1  0.83333333  0.66666667  0.83333333  1
  Na  Na3823  1  0.83333333  0.86666667  0.03333333  1
  Na  Na3824  1  0.83333333  0.86666667  0.23333333  1
  Na  Na3825  1  0.83333333  0.86666667  0.43333333  1
  Na  Na3826  1  0.83333333  0.86666667  0.63333333  1
  Na  Na3827  1  0.83333333  0.86666667  0.83333333  1
  Na  Na3828  1  0.03333333  0.06666667  0.10000000  1
  Na  Na3829  1  0.03333333  0.06666667  0.30000000  1
  Na  Na3830  1  0.03333333  0.06666667  0.50000000  1
  Na  Na3831  1  0.03333333  0.06666667  0.70000000  1
  Na  Na3832  1  0.03333333  0.06666667  0.90000000  1
  Na  Na3833  1  0.03333333  0.26666667  0.10000000  1
  Na  Na3834  1  0.03333333  0.26666667  0.30000000  1
  Na  Na3835  1  0.03333333  0.26666667  0.50000000  1
  Na  Na3836  1  0.03333333  0.26666667  0.70000000  1
  Na  Na3837  1  0.03333333  0.26666667  0.90000000  1
  Na  Na3838  1  0.03333333  0.46666667  0.10000000  1
  Na  Na3839  1  0.03333333  0.46666667  0.30000000  1
  Na  Na3840  1  0.03333333  0.46666667  0.50000000  1
  Na  Na3841  1  0.03333333  0.46666667  0.70000000  1
  Na  Na3842  1  0.03333333  0.46666667  0.90000000  1
  Na  Na3843  1  0.03333333  0.66666667  0.10000000  1
  Na  Na3844  1  0.03333333  0.66666667  0.30000000  1
  Na  Na3845  1  0.03333333  0.66666667  0.50000000  1
  Na  Na3846  1  0.03333333  0.66666667  0.70000000  1
  Na  Na3847  1  0.03333333  0.66666667  0.90000000  1
  Na  Na3848  1  0.03333333  0.86666667  0.10000000  1
  Na  Na3849  1  0.03333333  0.86666667  0.30000000  1
  Na  Na3850  1  0.03333333  0.86666667  0.50000000  1
  Na  Na3851  1  0.03333333  0.86666667  0.70000000  1
  Na  Na3852  1  0.03333333  0.86666667  0.90000000  1
  Na  Na3853  1  0.23333333  0.06666667  0.10000000  1
  Na  Na3854  1  0.23333333  0.06666667  0.30000000  1
  Na  Na3855  1  0.23333333  0.06666667  0.70000000  1
  Na  Na3856  1  0.23333333  0.06666667  0.90000000  1
  Na  Na3857  1  0.23333333  0.26666667  0.10000000  1
  Na  Na3858  1  0.23333333  0.26666667  0.30000000  1
  Na  Na3859  1  0.23333333  0.26666667  0.50000000  1
  Na  Na3860  1  0.23333333  0.26666667  0.70000000  1
  Na  Na3861  1  0.23333333  0.26666667  0.90000000  1
  Na  Na3862  1  0.23333333  0.46666667  0.10000000  1
  Na  Na3863  1  0.23333333  0.46666667  0.30000000  1
  Na  Na3864  1  0.23333333  0.46666667  0.50000000  1
  Na  Na3865  1  0.23333333  0.46666667  0.70000000  1
  Na  Na3866  1  0.23333333  0.46666667  0.90000000  1
  Na  Na3867  1  0.23333333  0.66666667  0.10000000  1
  Na  Na3868  1  0.23333333  0.66666667  0.30000000  1
  Na  Na3869  1  0.23333333  0.66666667  0.50000000  1
  Na  Na3870  1  0.23333333  0.66666667  0.70000000  1
  Na  Na3871  1  0.23333333  0.66666667  0.90000000  1
  Na  Na3872  1  0.23333333  0.86666667  0.10000000  1
  Na  Na3873  1  0.23333333  0.86666667  0.30000000  1
  Na  Na3874  1  0.23333333  0.86666667  0.50000000  1
  Na  Na3875  1  0.23333333  0.86666667  0.70000000  1
  Na  Na3876  1  0.23333333  0.86666667  0.90000000  1
  Na  Na3877  1  0.43333333  0.06666667  0.10000000  1
  Na  Na3878  1  0.43333333  0.06666667  0.30000000  1
  Na  Na3879  1  0.43333333  0.06666667  0.50000000  1
  Na  Na3880  1  0.43333333  0.06666667  0.70000000  1
  Na  Na3881  1  0.43333333  0.06666667  0.90000000  1
  Na  Na3882  1  0.43333333  0.26666667  0.10000000  1
  Na  Na3883  1  0.43333333  0.26666667  0.30000000  1
  Na  Na3884  1  0.43333333  0.26666667  0.50000000  1
  Na  Na3885  1  0.43333333  0.26666667  0.70000000  1
  Na  Na3886  1  0.43333333  0.26666667  0.90000000  1
  Na  Na3887  1  0.43333333  0.46666667  0.10000000  1
  Na  Na3888  1  0.43333333  0.46666667  0.30000000  1
  Na  Na3889  1  0.43333333  0.46666667  0.50000000  1
  Na  Na3890  1  0.43333333  0.46666667  0.70000000  1
  Na  Na3891  1  0.43333333  0.46666667  0.90000000  1
  Na  Na3892  1  0.43333333  0.66666667  0.10000000  1
  Na  Na3893  1  0.43333333  0.66666667  0.30000000  1
  Na  Na3894  1  0.43333333  0.66666667  0.50000000  1
  Na  Na3895  1  0.43333333  0.66666667  0.70000000  1
  Na  Na3896  1  0.43333333  0.66666667  0.90000000  1
  Na  Na3897  1  0.43333333  0.86666667  0.10000000  1
  Na  Na3898  1  0.43333333  0.86666667  0.30000000  1
  Na  Na3899  1  0.43333333  0.86666667  0.50000000  1
  Na  Na3900  1  0.43333333  0.86666667  0.70000000  1
  Na  Na3901  1  0.43333333  0.86666667  0.90000000  1
  Na  Na3902  1  0.63333333  0.06666667  0.10000000  1
  Na  Na3903  1  0.63333333  0.06666667  0.30000000  1
  Na  Na3904  1  0.63333333  0.06666667  0.50000000  1
  Na  Na3905  1  0.63333333  0.06666667  0.70000000  1
  Na  Na3906  1  0.63333333  0.26666667  0.10000000  1
  Na  Na3907  1  0.63333333  0.26666667  0.30000000  1
  Na  Na3908  1  0.63333333  0.26666667  0.70000000  1
  Na  Na3909  1  0.63333333  0.26666667  0.90000000  1
  Na  Na3910  1  0.63333333  0.46666667  0.10000000  1
  Na  Na3911  1  0.63333333  0.46666667  0.30000000  1
  Na  Na3912  1  0.63333333  0.46666667  0.50000000  1
  Na  Na3913  1  0.63333333  0.46666667  0.70000000  1
  Na  Na3914  1  0.63333333  0.46666667  0.90000000  1
  Na  Na3915  1  0.63333333  0.66666667  0.10000000  1
  Na  Na3916  1  0.63333333  0.66666667  0.30000000  1
  Na  Na3917  1  0.63333333  0.66666667  0.50000000  1
  Na  Na3918  1  0.63333333  0.66666667  0.70000000  1
  Na  Na3919  1  0.63333333  0.66666667  0.90000000  1
  Na  Na3920  1  0.63333333  0.86666667  0.10000000  1
  Na  Na3921  1  0.63333333  0.86666667  0.30000000  1
  Na  Na3922  1  0.63333333  0.86666667  0.50000000  1
  Na  Na3923  1  0.63333333  0.86666667  0.70000000  1
  Na  Na3924  1  0.63333333  0.86666667  0.90000000  1
  Na  Na3925  1  0.83333333  0.06666667  0.10000000  1
  Na  Na3926  1  0.83333333  0.06666667  0.30000000  1
  Na  Na3927  1  0.83333333  0.06666667  0.50000000  1
  Na  Na3928  1  0.83333333  0.06666667  0.70000000  1
  Na  Na3929  1  0.83333333  0.06666667  0.90000000  1
  Na  Na3930  1  0.83333333  0.26666667  0.10000000  1
  Na  Na3931  1  0.83333333  0.26666667  0.30000000  1
  Na  Na3932  1  0.83333333  0.26666667  0.50000000  1
  Na  Na3933  1  0.83333333  0.26666667  0.70000000  1
  Na  Na3934  1  0.83333333  0.26666667  0.90000000  1
  Na  Na3935  1  0.83333333  0.46666667  0.10000000  1
  Na  Na3936  1  0.83333333  0.46666667  0.30000000  1
  Na  Na3937  1  0.83333333  0.46666667  0.50000000  1
  Na  Na3938  1  0.83333333  0.46666667  0.70000000  1
  Na  Na3939  1  0.83333333  0.66666667  0.10000000  1
  Na  Na3940  1  0.83333333  0.66666667  0.30000000  1
  Na  Na3941  1  0.83333333  0.66666667  0.50000000  1
  Na  Na3942  1  0.83333333  0.66666667  0.70000000  1
  Na  Na3943  1  0.83333333  0.66666667  0.90000000  1
  Na  Na3944  1  0.83333333  0.86666667  0.10000000  1
  Na  Na3945  1  0.83333333  0.86666667  0.30000000  1
  Na  Na3946  1  0.83333333  0.86666667  0.50000000  1
  Na  Na3947  1  0.83333333  0.86666667  0.70000000  1
  Na  Na3948  1  0.83333333  0.86666667  0.90000000  1
  Na  Na3949  1  0.03333333  0.06666667  0.16666667  1
  Na  Na3950  1  0.03333333  0.06666667  0.36666667  1
  Na  Na3951  1  0.03333333  0.06666667  0.56666667  1
  Na  Na3952  1  0.03333333  0.06666667  0.76666667  1
  Na  Na3953  1  0.03333333  0.06666667  0.96666667  1
  Na  Na3954  1  0.03333333  0.26666667  0.16666667  1
  Na  Na3955  1  0.03333333  0.26666667  0.36666667  1
  Na  Na3956  1  0.03333333  0.26666667  0.56666667  1
  Na  Na3957  1  0.03333333  0.26666667  0.76666667  1
  Na  Na3958  1  0.03333333  0.26666667  0.96666667  1
  Na  Na3959  1  0.03333333  0.46666667  0.16666667  1
  Na  Na3960  1  0.03333333  0.46666667  0.36666667  1
  Na  Na3961  1  0.03333333  0.46666667  0.56666667  1
  Na  Na3962  1  0.03333333  0.46666667  0.76666667  1
  Na  Na3963  1  0.03333333  0.46666667  0.96666667  1
  Na  Na3964  1  0.03333333  0.66666667  0.16666667  1
  Na  Na3965  1  0.03333333  0.66666667  0.36666667  1
  Na  Na3966  1  0.03333333  0.66666667  0.56666667  1
  Na  Na3967  1  0.03333333  0.66666667  0.76666667  1
  Na  Na3968  1  0.03333333  0.66666667  0.96666667  1
  Na  Na3969  1  0.03333333  0.86666667  0.16666667  1
  Na  Na3970  1  0.03333333  0.86666667  0.36666667  1
  Na  Na3971  1  0.03333333  0.86666667  0.56666667  1
  Na  Na3972  1  0.03333333  0.86666667  0.76666667  1
  Na  Na3973  1  0.03333333  0.86666667  0.96666667  1
  Na  Na3974  1  0.23333333  0.06666667  0.16666667  1
  Na  Na3975  1  0.23333333  0.06666667  0.36666667  1
  Na  Na3976  1  0.23333333  0.06666667  0.56666667  1
  Na  Na3977  1  0.23333333  0.06666667  0.76666667  1
  Na  Na3978  1  0.23333333  0.06666667  0.96666667  1
  Na  Na3979  1  0.23333333  0.26666667  0.36666667  1
  Na  Na3980  1  0.23333333  0.26666667  0.56666667  1
  Na  Na3981  1  0.23333333  0.26666667  0.76666667  1
  Na  Na3982  1  0.23333333  0.26666667  0.96666667  1
  Na  Na3983  1  0.23333333  0.46666667  0.16666667  1
  Na  Na3984  1  0.23333333  0.46666667  0.36666667  1
  Na  Na3985  1  0.23333333  0.46666667  0.56666667  1
  Na  Na3986  1  0.23333333  0.46666667  0.76666667  1
  Na  Na3987  1  0.23333333  0.46666667  0.96666667  1
  Na  Na3988  1  0.23333333  0.66666667  0.16666667  1
  Na  Na3989  1  0.23333333  0.66666667  0.36666667  1
  Na  Na3990  1  0.23333333  0.66666667  0.56666667  1
  Na  Na3991  1  0.23333333  0.66666667  0.76666667  1
  Na  Na3992  1  0.23333333  0.66666667  0.96666667  1
  Na  Na3993  1  0.23333333  0.86666667  0.16666667  1
  Na  Na3994  1  0.23333333  0.86666667  0.36666667  1
  Na  Na3995  1  0.23333333  0.86666667  0.56666667  1
  Na  Na3996  1  0.23333333  0.86666667  0.76666667  1
  Na  Na3997  1  0.23333333  0.86666667  0.96666667  1
  Na  Na3998  1  0.43333333  0.06666667  0.16666667  1
  Na  Na3999  1  0.43333333  0.06666667  0.36666667  1
  Na  Na4000  1  0.43333333  0.06666667  0.56666667  1
  Na  Na4001  1  0.43333333  0.06666667  0.76666667  1
  Na  Na4002  1  0.43333333  0.06666667  0.96666667  1
  Na  Na4003  1  0.43333333  0.26666667  0.16666667  1
  Na  Na4004  1  0.43333333  0.26666667  0.36666667  1
  Na  Na4005  1  0.43333333  0.26666667  0.56666667  1
  Na  Na4006  1  0.43333333  0.26666667  0.76666667  1
  Na  Na4007  1  0.43333333  0.26666667  0.96666667  1
  Na  Na4008  1  0.43333333  0.46666667  0.16666667  1
  Na  Na4009  1  0.43333333  0.46666667  0.36666667  1
  Na  Na4010  1  0.43333333  0.46666667  0.56666667  1
  Na  Na4011  1  0.43333333  0.46666667  0.76666667  1
  Na  Na4012  1  0.43333333  0.46666667  0.96666667  1
  Na  Na4013  1  0.43333333  0.66666667  0.16666667  1
  Na  Na4014  1  0.43333333  0.66666667  0.36666667  1
  Na  Na4015  1  0.43333333  0.66666667  0.56666667  1
  Na  Na4016  1  0.43333333  0.66666667  0.76666667  1
  Na  Na4017  1  0.43333333  0.66666667  0.96666667  1
  Na  Na4018  1  0.43333333  0.86666667  0.16666667  1
  Na  Na4019  1  0.43333333  0.86666667  0.36666667  1
  Na  Na4020  1  0.43333333  0.86666667  0.56666667  1
  Na  Na4021  1  0.43333333  0.86666667  0.76666667  1
  Na  Na4022  1  0.43333333  0.86666667  0.96666667  1
  Na  Na4023  1  0.63333333  0.06666667  0.16666667  1
  Na  Na4024  1  0.63333333  0.06666667  0.36666667  1
  Na  Na4025  1  0.63333333  0.06666667  0.56666667  1
  Na  Na4026  1  0.63333333  0.06666667  0.76666667  1
  Na  Na4027  1  0.63333333  0.06666667  0.96666667  1
  Na  Na4028  1  0.63333333  0.26666667  0.16666667  1
  Na  Na4029  1  0.63333333  0.26666667  0.36666667  1
  Na  Na4030  1  0.63333333  0.26666667  0.56666667  1
  Na  Na4031  1  0.63333333  0.26666667  0.76666667  1
  Na  Na4032  1  0.63333333  0.26666667  0.96666667  1
  Na  Na4033  1  0.63333333  0.46666667  0.16666667  1
  Na  Na4034  1  0.63333333  0.46666667  0.36666667  1
  Na  Na4035  1  0.63333333  0.46666667  0.56666667  1
  Na  Na4036  1  0.63333333  0.46666667  0.76666667  1
  Na  Na4037  1  0.63333333  0.46666667  0.96666667  1
  Na  Na4038  1  0.63333333  0.66666667  0.16666667  1
  Na  Na4039  1  0.63333333  0.66666667  0.36666667  1
  Na  Na4040  1  0.63333333  0.66666667  0.56666667  1
  Na  Na4041  1  0.63333333  0.66666667  0.76666667  1
  Na  Na4042  1  0.63333333  0.66666667  0.96666667  1
  Na  Na4043  1  0.63333333  0.86666667  0.16666667  1
  Na  Na4044  1  0.63333333  0.86666667  0.36666667  1
  Na  Na4045  1  0.63333333  0.86666667  0.56666667  1
  Na  Na4046  1  0.63333333  0.86666667  0.76666667  1
  Na  Na4047  1  0.63333333  0.86666667  0.96666667  1
  Na  Na4048  1  0.83333333  0.06666667  0.16666667  1
  Na  Na4049  1  0.83333333  0.06666667  0.36666667  1
  Na  Na4050  1  0.83333333  0.06666667  0.56666667  1
  Na  Na4051  1  0.83333333  0.06666667  0.76666667  1
  Na  Na4052  1  0.83333333  0.06666667  0.96666667  1
  Na  Na4053  1  0.83333333  0.26666667  0.16666667  1
  Na  Na4054  1  0.83333333  0.26666667  0.36666667  1
  Na  Na4055  1  0.83333333  0.26666667  0.56666667  1
  Na  Na4056  1  0.83333333  0.26666667  0.76666667  1
  Na  Na4057  1  0.83333333  0.26666667  0.96666667  1
  Na  Na4058  1  0.83333333  0.46666667  0.16666667  1
  Na  Na4059  1  0.83333333  0.46666667  0.36666667  1
  Na  Na4060  1  0.83333333  0.46666667  0.56666667  1
  Na  Na4061  1  0.83333333  0.46666667  0.76666667  1
  Na  Na4062  1  0.83333333  0.46666667  0.96666667  1
  Na  Na4063  1  0.83333333  0.66666667  0.16666667  1
  Na  Na4064  1  0.83333333  0.66666667  0.36666667  1
  Na  Na4065  1  0.83333333  0.66666667  0.56666667  1
  Na  Na4066  1  0.83333333  0.66666667  0.76666667  1
  Na  Na4067  1  0.83333333  0.66666667  0.96666667  1
  Na  Na4068  1  0.83333333  0.86666667  0.16666667  1
  Na  Na4069  1  0.83333333  0.86666667  0.36666667  1
  Na  Na4070  1  0.83333333  0.86666667  0.56666667  1
  Na  Na4071  1  0.83333333  0.86666667  0.76666667  1
  Na  Na4072  1  0.83333333  0.86666667  0.96666667  1
  Na  Na4073  1  0.03333333  0.13333333  0.03333333  1
  Na  Na4074  1  0.03333333  0.13333333  0.23333333  1
  Na  Na4075  1  0.03333333  0.13333333  0.43333333  1
  Na  Na4076  1  0.03333333  0.13333333  0.63333333  1
  Na  Na4077  1  0.03333333  0.13333333  0.83333333  1
  Na  Na4078  1  0.03333333  0.33333333  0.23333333  1
  Na  Na4079  1  0.03333333  0.33333333  0.43333333  1
  Na  Na4080  1  0.03333333  0.33333333  0.63333333  1
  Na  Na4081  1  0.03333333  0.33333333  0.83333333  1
  Na  Na4082  1  0.03333333  0.53333333  0.03333333  1
  Na  Na4083  1  0.03333333  0.53333333  0.23333333  1
  Na  Na4084  1  0.03333333  0.53333333  0.43333333  1
  Na  Na4085  1  0.03333333  0.53333333  0.63333333  1
  Na  Na4086  1  0.03333333  0.53333333  0.83333333  1
  Na  Na4087  1  0.03333333  0.73333333  0.03333333  1
  Na  Na4088  1  0.03333333  0.73333333  0.23333333  1
  Na  Na4089  1  0.03333333  0.73333333  0.43333333  1
  Na  Na4090  1  0.03333333  0.73333333  0.63333333  1
  Na  Na4091  1  0.03333333  0.73333333  0.83333333  1
  Na  Na4092  1  0.03333333  0.93333333  0.23333333  1
  Na  Na4093  1  0.03333333  0.93333333  0.43333333  1
  Na  Na4094  1  0.03333333  0.93333333  0.63333333  1
  Na  Na4095  1  0.03333333  0.93333333  0.83333333  1
  Na  Na4096  1  0.23333333  0.13333333  0.03333333  1
  Na  Na4097  1  0.23333333  0.13333333  0.23333333  1
  Na  Na4098  1  0.23333333  0.13333333  0.43333333  1
  Na  Na4099  1  0.23333333  0.13333333  0.63333333  1
  Na  Na4100  1  0.23333333  0.13333333  0.83333333  1
  Na  Na4101  1  0.23333333  0.33333333  0.03333333  1
  Na  Na4102  1  0.23333333  0.33333333  0.23333333  1
  Na  Na4103  1  0.23333333  0.33333333  0.43333333  1
  Na  Na4104  1  0.23333333  0.33333333  0.63333333  1
  Na  Na4105  1  0.23333333  0.33333333  0.83333333  1
  Na  Na4106  1  0.23333333  0.53333333  0.03333333  1
  Na  Na4107  1  0.23333333  0.53333333  0.23333333  1
  Na  Na4108  1  0.23333333  0.53333333  0.43333333  1
  Na  Na4109  1  0.23333333  0.53333333  0.63333333  1
  Na  Na4110  1  0.23333333  0.53333333  0.83333333  1
  Na  Na4111  1  0.23333333  0.73333333  0.03333333  1
  Na  Na4112  1  0.23333333  0.73333333  0.23333333  1
  Na  Na4113  1  0.23333333  0.73333333  0.43333333  1
  Na  Na4114  1  0.23333333  0.73333333  0.63333333  1
  Na  Na4115  1  0.23333333  0.73333333  0.83333333  1
  Na  Na4116  1  0.23333333  0.93333333  0.03333333  1
  Na  Na4117  1  0.23333333  0.93333333  0.23333333  1
  Na  Na4118  1  0.23333333  0.93333333  0.43333333  1
  Na  Na4119  1  0.23333333  0.93333333  0.63333333  1
  Na  Na4120  1  0.23333333  0.93333333  0.83333333  1
  Na  Na4121  1  0.43333333  0.13333333  0.03333333  1
  Na  Na4122  1  0.43333333  0.13333333  0.23333333  1
  Na  Na4123  1  0.43333333  0.13333333  0.43333333  1
  Na  Na4124  1  0.43333333  0.13333333  0.63333333  1
  Na  Na4125  1  0.43333333  0.13333333  0.83333333  1
  Na  Na4126  1  0.43333333  0.33333333  0.03333333  1
  Na  Na4127  1  0.43333333  0.33333333  0.23333333  1
  Na  Na4128  1  0.43333333  0.33333333  0.43333333  1
  Na  Na4129  1  0.43333333  0.33333333  0.63333333  1
  Na  Na4130  1  0.43333333  0.33333333  0.83333333  1
  Na  Na4131  1  0.43333333  0.53333333  0.03333333  1
  Na  Na4132  1  0.43333333  0.53333333  0.23333333  1
  Na  Na4133  1  0.43333333  0.53333333  0.43333333  1
  Na  Na4134  1  0.43333333  0.53333333  0.63333333  1
  Na  Na4135  1  0.43333333  0.53333333  0.83333333  1
  Na  Na4136  1  0.43333333  0.73333333  0.03333333  1
  Na  Na4137  1  0.43333333  0.73333333  0.23333333  1
  Na  Na4138  1  0.43333333  0.73333333  0.43333333  1
  Na  Na4139  1  0.43333333  0.73333333  0.63333333  1
  Na  Na4140  1  0.43333333  0.73333333  0.83333333  1
  Na  Na4141  1  0.43333333  0.93333333  0.03333333  1
  Na  Na4142  1  0.43333333  0.93333333  0.23333333  1
  Na  Na4143  1  0.43333333  0.93333333  0.43333333  1
  Na  Na4144  1  0.43333333  0.93333333  0.63333333  1
  Na  Na4145  1  0.43333333  0.93333333  0.83333333  1
  Na  Na4146  1  0.63333333  0.13333333  0.03333333  1
  Na  Na4147  1  0.63333333  0.13333333  0.23333333  1
  Na  Na4148  1  0.63333333  0.13333333  0.43333333  1
  Na  Na4149  1  0.63333333  0.13333333  0.63333333  1
  Na  Na4150  1  0.63333333  0.13333333  0.83333333  1
  Na  Na4151  1  0.63333333  0.33333333  0.03333333  1
  Na  Na4152  1  0.63333333  0.33333333  0.23333333  1
  Na  Na4153  1  0.63333333  0.33333333  0.43333333  1
  Na  Na4154  1  0.63333333  0.33333333  0.63333333  1
  Na  Na4155  1  0.63333333  0.33333333  0.83333333  1
  Na  Na4156  1  0.63333333  0.53333333  0.03333333  1
  Na  Na4157  1  0.63333333  0.53333333  0.23333333  1
  Na  Na4158  1  0.63333333  0.53333333  0.43333333  1
  Na  Na4159  1  0.63333333  0.53333333  0.63333333  1
  Na  Na4160  1  0.63333333  0.53333333  0.83333333  1
  Na  Na4161  1  0.63333333  0.73333333  0.03333333  1
  Na  Na4162  1  0.63333333  0.73333333  0.23333333  1
  Na  Na4163  1  0.63333333  0.73333333  0.43333333  1
  Na  Na4164  1  0.63333333  0.73333333  0.63333333  1
  Na  Na4165  1  0.63333333  0.73333333  0.83333333  1
  Na  Na4166  1  0.63333333  0.93333333  0.03333333  1
  Na  Na4167  1  0.63333333  0.93333333  0.23333333  1
  Na  Na4168  1  0.63333333  0.93333333  0.43333333  1
  Na  Na4169  1  0.63333333  0.93333333  0.63333333  1
  Na  Na4170  1  0.63333333  0.93333333  0.83333333  1
  Na  Na4171  1  0.83333333  0.13333333  0.03333333  1
  Na  Na4172  1  0.83333333  0.13333333  0.23333333  1
  Na  Na4173  1  0.83333333  0.13333333  0.43333333  1
  Na  Na4174  1  0.83333333  0.13333333  0.63333333  1
  Na  Na4175  1  0.83333333  0.13333333  0.83333333  1
  Na  Na4176  1  0.83333333  0.33333333  0.03333333  1
  Na  Na4177  1  0.83333333  0.33333333  0.23333333  1
  Na  Na4178  1  0.83333333  0.33333333  0.43333333  1
  Na  Na4179  1  0.83333333  0.33333333  0.63333333  1
  Na  Na4180  1  0.83333333  0.33333333  0.83333333  1
  Na  Na4181  1  0.83333333  0.53333333  0.03333333  1
  Na  Na4182  1  0.83333333  0.53333333  0.23333333  1
  Na  Na4183  1  0.83333333  0.53333333  0.43333333  1
  Na  Na4184  1  0.83333333  0.53333333  0.63333333  1
  Na  Na4185  1  0.83333333  0.53333333  0.83333333  1
  Na  Na4186  1  0.83333333  0.73333333  0.03333333  1
  Na  Na4187  1  0.83333333  0.73333333  0.23333333  1
  Na  Na4188  1  0.83333333  0.73333333  0.43333333  1
  Na  Na4189  1  0.83333333  0.73333333  0.63333333  1
  Na  Na4190  1  0.83333333  0.73333333  0.83333333  1
  Na  Na4191  1  0.83333333  0.93333333  0.03333333  1
  Na  Na4192  1  0.83333333  0.93333333  0.23333333  1
  Na  Na4193  1  0.83333333  0.93333333  0.43333333  1
  Na  Na4194  1  0.83333333  0.93333333  0.63333333  1
  Na  Na4195  1  0.83333333  0.93333333  0.83333333  1
  Na  Na4196  1  0.03333333  0.13333333  0.10000000  1
  Na  Na4197  1  0.03333333  0.13333333  0.30000000  1
  Na  Na4198  1  0.03333333  0.13333333  0.50000000  1
  Na  Na4199  1  0.03333333  0.13333333  0.70000000  1
  Na  Na4200  1  0.03333333  0.13333333  0.90000000  1
  Na  Na4201  1  0.03333333  0.33333333  0.10000000  1
  Na  Na4202  1  0.03333333  0.33333333  0.30000000  1
  Na  Na4203  1  0.03333333  0.33333333  0.50000000  1
  Na  Na4204  1  0.03333333  0.33333333  0.70000000  1
  Na  Na4205  1  0.03333333  0.33333333  0.90000000  1
  Na  Na4206  1  0.03333333  0.53333333  0.10000000  1
  Na  Na4207  1  0.03333333  0.53333333  0.30000000  1
  Na  Na4208  1  0.03333333  0.53333333  0.50000000  1
  Na  Na4209  1  0.03333333  0.53333333  0.70000000  1
  Na  Na4210  1  0.03333333  0.53333333  0.90000000  1
  Na  Na4211  1  0.03333333  0.73333333  0.10000000  1
  Na  Na4212  1  0.03333333  0.73333333  0.30000000  1
  Na  Na4213  1  0.03333333  0.73333333  0.50000000  1
  Na  Na4214  1  0.03333333  0.73333333  0.70000000  1
  Na  Na4215  1  0.03333333  0.73333333  0.90000000  1
  Na  Na4216  1  0.03333333  0.93333333  0.10000000  1
  Na  Na4217  1  0.03333333  0.93333333  0.30000000  1
  Na  Na4218  1  0.03333333  0.93333333  0.50000000  1
  Na  Na4219  1  0.03333333  0.93333333  0.70000000  1
  Na  Na4220  1  0.03333333  0.93333333  0.90000000  1
  Na  Na4221  1  0.23333333  0.13333333  0.10000000  1
  Na  Na4222  1  0.23333333  0.13333333  0.30000000  1
  Na  Na4223  1  0.23333333  0.13333333  0.50000000  1
  Na  Na4224  1  0.23333333  0.13333333  0.70000000  1
  Na  Na4225  1  0.23333333  0.13333333  0.90000000  1
  Na  Na4226  1  0.23333333  0.33333333  0.10000000  1
  Na  Na4227  1  0.23333333  0.33333333  0.30000000  1
  Na  Na4228  1  0.23333333  0.33333333  0.50000000  1
  Na  Na4229  1  0.23333333  0.33333333  0.70000000  1
  Na  Na4230  1  0.23333333  0.33333333  0.90000000  1
  Na  Na4231  1  0.23333333  0.53333333  0.10000000  1
  Na  Na4232  1  0.23333333  0.53333333  0.30000000  1
  Na  Na4233  1  0.23333333  0.53333333  0.50000000  1
  Na  Na4234  1  0.23333333  0.53333333  0.70000000  1
  Na  Na4235  1  0.23333333  0.53333333  0.90000000  1
  Na  Na4236  1  0.23333333  0.73333333  0.10000000  1
  Na  Na4237  1  0.23333333  0.73333333  0.30000000  1
  Na  Na4238  1  0.23333333  0.73333333  0.50000000  1
  Na  Na4239  1  0.23333333  0.73333333  0.70000000  1
  Na  Na4240  1  0.23333333  0.73333333  0.90000000  1
  Na  Na4241  1  0.23333333  0.93333333  0.10000000  1
  Na  Na4242  1  0.23333333  0.93333333  0.30000000  1
  Na  Na4243  1  0.23333333  0.93333333  0.50000000  1
  Na  Na4244  1  0.23333333  0.93333333  0.70000000  1
  Na  Na4245  1  0.23333333  0.93333333  0.90000000  1
  Na  Na4246  1  0.43333333  0.13333333  0.10000000  1
  Na  Na4247  1  0.43333333  0.13333333  0.30000000  1
  Na  Na4248  1  0.43333333  0.13333333  0.50000000  1
  Na  Na4249  1  0.43333333  0.13333333  0.70000000  1
  Na  Na4250  1  0.43333333  0.13333333  0.90000000  1
  Na  Na4251  1  0.43333333  0.33333333  0.10000000  1
  Na  Na4252  1  0.43333333  0.33333333  0.30000000  1
  Na  Na4253  1  0.43333333  0.33333333  0.50000000  1
  Na  Na4254  1  0.43333333  0.33333333  0.70000000  1
  Na  Na4255  1  0.43333333  0.33333333  0.90000000  1
  Na  Na4256  1  0.43333333  0.53333333  0.10000000  1
  Na  Na4257  1  0.43333333  0.53333333  0.30000000  1
  Na  Na4258  1  0.43333333  0.53333333  0.50000000  1
  Na  Na4259  1  0.43333333  0.53333333  0.70000000  1
  Na  Na4260  1  0.43333333  0.53333333  0.90000000  1
  Na  Na4261  1  0.43333333  0.73333333  0.10000000  1
  Na  Na4262  1  0.43333333  0.73333333  0.30000000  1
  Na  Na4263  1  0.43333333  0.73333333  0.50000000  1
  Na  Na4264  1  0.43333333  0.73333333  0.70000000  1
  Na  Na4265  1  0.43333333  0.73333333  0.90000000  1
  Na  Na4266  1  0.43333333  0.93333333  0.10000000  1
  Na  Na4267  1  0.43333333  0.93333333  0.30000000  1
  Na  Na4268  1  0.43333333  0.93333333  0.50000000  1
  Na  Na4269  1  0.43333333  0.93333333  0.70000000  1
  Na  Na4270  1  0.43333333  0.93333333  0.90000000  1
  Na  Na4271  1  0.63333333  0.13333333  0.10000000  1
  Na  Na4272  1  0.63333333  0.13333333  0.30000000  1
  Na  Na4273  1  0.63333333  0.13333333  0.50000000  1
  Na  Na4274  1  0.63333333  0.13333333  0.70000000  1
  Na  Na4275  1  0.63333333  0.13333333  0.90000000  1
  Na  Na4276  1  0.63333333  0.33333333  0.10000000  1
  Na  Na4277  1  0.63333333  0.33333333  0.30000000  1
  Na  Na4278  1  0.63333333  0.33333333  0.50000000  1
  Na  Na4279  1  0.63333333  0.33333333  0.70000000  1
  Na  Na4280  1  0.63333333  0.33333333  0.90000000  1
  Na  Na4281  1  0.63333333  0.53333333  0.10000000  1
  Na  Na4282  1  0.63333333  0.53333333  0.30000000  1
  Na  Na4283  1  0.63333333  0.53333333  0.50000000  1
  Na  Na4284  1  0.63333333  0.53333333  0.70000000  1
  Na  Na4285  1  0.63333333  0.73333333  0.10000000  1
  Na  Na4286  1  0.63333333  0.73333333  0.30000000  1
  Na  Na4287  1  0.63333333  0.73333333  0.50000000  1
  Na  Na4288  1  0.63333333  0.73333333  0.70000000  1
  Na  Na4289  1  0.63333333  0.73333333  0.90000000  1
  Na  Na4290  1  0.63333333  0.93333333  0.10000000  1
  Na  Na4291  1  0.63333333  0.93333333  0.30000000  1
  Na  Na4292  1  0.63333333  0.93333333  0.50000000  1
  Na  Na4293  1  0.63333333  0.93333333  0.70000000  1
  Na  Na4294  1  0.63333333  0.93333333  0.90000000  1
  Na  Na4295  1  0.83333333  0.13333333  0.10000000  1
  Na  Na4296  1  0.83333333  0.13333333  0.30000000  1
  Na  Na4297  1  0.83333333  0.13333333  0.50000000  1
  Na  Na4298  1  0.83333333  0.13333333  0.70000000  1
  Na  Na4299  1  0.83333333  0.13333333  0.90000000  1
  Na  Na4300  1  0.83333333  0.33333333  0.10000000  1
  Na  Na4301  1  0.83333333  0.33333333  0.30000000  1
  Na  Na4302  1  0.83333333  0.33333333  0.50000000  1
  Na  Na4303  1  0.83333333  0.33333333  0.70000000  1
  Na  Na4304  1  0.83333333  0.33333333  0.90000000  1
  Na  Na4305  1  0.83333333  0.53333333  0.10000000  1
  Na  Na4306  1  0.83333333  0.53333333  0.30000000  1
  Na  Na4307  1  0.83333333  0.53333333  0.50000000  1
  Na  Na4308  1  0.83333333  0.53333333  0.70000000  1
  Na  Na4309  1  0.83333333  0.53333333  0.90000000  1
  Na  Na4310  1  0.83333333  0.73333333  0.10000000  1
  Na  Na4311  1  0.83333333  0.73333333  0.30000000  1
  Na  Na4312  1  0.83333333  0.73333333  0.50000000  1
  Na  Na4313  1  0.83333333  0.73333333  0.70000000  1
  Na  Na4314  1  0.83333333  0.73333333  0.90000000  1
  Na  Na4315  1  0.83333333  0.93333333  0.10000000  1
  Na  Na4316  1  0.83333333  0.93333333  0.30000000  1
  Na  Na4317  1  0.83333333  0.93333333  0.50000000  1
  Na  Na4318  1  0.83333333  0.93333333  0.70000000  1
  Na  Na4319  1  0.83333333  0.93333333  0.90000000  1
  Na  Na4320  1  0.03333333  0.13333333  0.16666667  1
  Na  Na4321  1  0.03333333  0.13333333  0.36666667  1
  Na  Na4322  1  0.03333333  0.13333333  0.56666667  1
  Na  Na4323  1  0.03333333  0.13333333  0.76666667  1
  Na  Na4324  1  0.03333333  0.13333333  0.96666667  1
  Na  Na4325  1  0.03333333  0.33333333  0.16666667  1
  Na  Na4326  1  0.03333333  0.33333333  0.36666667  1
  Na  Na4327  1  0.03333333  0.33333333  0.56666667  1
  Na  Na4328  1  0.03333333  0.33333333  0.76666667  1
  Na  Na4329  1  0.03333333  0.33333333  0.96666667  1
  Na  Na4330  1  0.03333333  0.53333333  0.16666667  1
  Na  Na4331  1  0.03333333  0.53333333  0.36666667  1
  Na  Na4332  1  0.03333333  0.53333333  0.56666667  1
  Na  Na4333  1  0.03333333  0.53333333  0.76666667  1
  Na  Na4334  1  0.03333333  0.53333333  0.96666667  1
  Na  Na4335  1  0.03333333  0.73333333  0.16666667  1
  Na  Na4336  1  0.03333333  0.73333333  0.36666667  1
  Na  Na4337  1  0.03333333  0.73333333  0.56666667  1
  Na  Na4338  1  0.03333333  0.73333333  0.76666667  1
  Na  Na4339  1  0.03333333  0.73333333  0.96666667  1
  Na  Na4340  1  0.03333333  0.93333333  0.16666667  1
  Na  Na4341  1  0.03333333  0.93333333  0.36666667  1
  Na  Na4342  1  0.03333333  0.93333333  0.56666667  1
  Na  Na4343  1  0.03333333  0.93333333  0.76666667  1
  Na  Na4344  1  0.03333333  0.93333333  0.96666667  1
  Na  Na4345  1  0.23333333  0.13333333  0.16666667  1
  Na  Na4346  1  0.23333333  0.13333333  0.36666667  1
  Na  Na4347  1  0.23333333  0.13333333  0.56666667  1
  Na  Na4348  1  0.23333333  0.13333333  0.76666667  1
  Na  Na4349  1  0.23333333  0.13333333  0.96666667  1
  Na  Na4350  1  0.23333333  0.33333333  0.16666667  1
  Na  Na4351  1  0.23333333  0.33333333  0.36666667  1
  Na  Na4352  1  0.23333333  0.33333333  0.56666667  1
  Na  Na4353  1  0.23333333  0.33333333  0.76666667  1
  Na  Na4354  1  0.23333333  0.33333333  0.96666667  1
  Na  Na4355  1  0.23333333  0.53333333  0.16666667  1
  Na  Na4356  1  0.23333333  0.53333333  0.36666667  1
  Na  Na4357  1  0.23333333  0.53333333  0.56666667  1
  Na  Na4358  1  0.23333333  0.53333333  0.76666667  1
  Na  Na4359  1  0.23333333  0.53333333  0.96666667  1
  Na  Na4360  1  0.23333333  0.73333333  0.16666667  1
  Na  Na4361  1  0.23333333  0.73333333  0.36666667  1
  Na  Na4362  1  0.23333333  0.73333333  0.56666667  1
  Na  Na4363  1  0.23333333  0.73333333  0.76666667  1
  Na  Na4364  1  0.23333333  0.73333333  0.96666667  1
  Na  Na4365  1  0.23333333  0.93333333  0.16666667  1
  Na  Na4366  1  0.23333333  0.93333333  0.36666667  1
  Na  Na4367  1  0.23333333  0.93333333  0.56666667  1
  Na  Na4368  1  0.23333333  0.93333333  0.76666667  1
  Na  Na4369  1  0.23333333  0.93333333  0.96666667  1
  Na  Na4370  1  0.43333333  0.13333333  0.16666667  1
  Na  Na4371  1  0.43333333  0.13333333  0.36666667  1
  Na  Na4372  1  0.43333333  0.13333333  0.56666667  1
  Na  Na4373  1  0.43333333  0.13333333  0.76666667  1
  Na  Na4374  1  0.43333333  0.13333333  0.96666667  1
  Na  Na4375  1  0.43333333  0.33333333  0.16666667  1
  Na  Na4376  1  0.43333333  0.33333333  0.36666667  1
  Na  Na4377  1  0.43333333  0.33333333  0.56666667  1
  Na  Na4378  1  0.43333333  0.33333333  0.76666667  1
  Na  Na4379  1  0.43333333  0.33333333  0.96666667  1
  Na  Na4380  1  0.43333333  0.53333333  0.36666667  1
  Na  Na4381  1  0.43333333  0.53333333  0.56666667  1
  Na  Na4382  1  0.43333333  0.53333333  0.96666667  1
  Na  Na4383  1  0.43333333  0.73333333  0.16666667  1
  Na  Na4384  1  0.43333333  0.73333333  0.36666667  1
  Na  Na4385  1  0.43333333  0.73333333  0.56666667  1
  Na  Na4386  1  0.43333333  0.73333333  0.76666667  1
  Na  Na4387  1  0.43333333  0.73333333  0.96666667  1
  Na  Na4388  1  0.43333333  0.93333333  0.16666667  1
  Na  Na4389  1  0.43333333  0.93333333  0.36666667  1
  Na  Na4390  1  0.43333333  0.93333333  0.56666667  1
  Na  Na4391  1  0.43333333  0.93333333  0.76666667  1
  Na  Na4392  1  0.43333333  0.93333333  0.96666667  1
  Na  Na4393  1  0.63333333  0.13333333  0.16666667  1
  Na  Na4394  1  0.63333333  0.13333333  0.36666667  1
  Na  Na4395  1  0.63333333  0.13333333  0.56666667  1
  Na  Na4396  1  0.63333333  0.13333333  0.76666667  1
  Na  Na4397  1  0.63333333  0.13333333  0.96666667  1
  Na  Na4398  1  0.63333333  0.33333333  0.16666667  1
  Na  Na4399  1  0.63333333  0.33333333  0.36666667  1
  Na  Na4400  1  0.63333333  0.33333333  0.56666667  1
  Na  Na4401  1  0.63333333  0.33333333  0.76666667  1
  Na  Na4402  1  0.63333333  0.33333333  0.96666667  1
  Na  Na4403  1  0.63333333  0.53333333  0.16666667  1
  Na  Na4404  1  0.63333333  0.53333333  0.36666667  1
  Na  Na4405  1  0.63333333  0.53333333  0.56666667  1
  Na  Na4406  1  0.63333333  0.53333333  0.76666667  1
  Na  Na4407  1  0.63333333  0.53333333  0.96666667  1
  Na  Na4408  1  0.63333333  0.73333333  0.16666667  1
  Na  Na4409  1  0.63333333  0.73333333  0.36666667  1
  Na  Na4410  1  0.63333333  0.73333333  0.56666667  1
  Na  Na4411  1  0.63333333  0.73333333  0.76666667  1
  Na  Na4412  1  0.63333333  0.73333333  0.96666667  1
  Na  Na4413  1  0.63333333  0.93333333  0.16666667  1
  Na  Na4414  1  0.63333333  0.93333333  0.36666667  1
  Na  Na4415  1  0.63333333  0.93333333  0.56666667  1
  Na  Na4416  1  0.63333333  0.93333333  0.76666667  1
  Na  Na4417  1  0.63333333  0.93333333  0.96666667  1
  Na  Na4418  1  0.83333333  0.13333333  0.16666667  1
  Na  Na4419  1  0.83333333  0.13333333  0.36666667  1
  Na  Na4420  1  0.83333333  0.13333333  0.76666667  1
  Na  Na4421  1  0.83333333  0.13333333  0.96666667  1
  Na  Na4422  1  0.83333333  0.33333333  0.16666667  1
  Na  Na4423  1  0.83333333  0.33333333  0.36666667  1
  Na  Na4424  1  0.83333333  0.33333333  0.56666667  1
  Na  Na4425  1  0.83333333  0.33333333  0.76666667  1
  Na  Na4426  1  0.83333333  0.33333333  0.96666667  1
  Na  Na4427  1  0.83333333  0.53333333  0.16666667  1
  Na  Na4428  1  0.83333333  0.53333333  0.36666667  1
  Na  Na4429  1  0.83333333  0.53333333  0.56666667  1
  Na  Na4430  1  0.83333333  0.53333333  0.76666667  1
  Na  Na4431  1  0.83333333  0.53333333  0.96666667  1
  Na  Na4432  1  0.83333333  0.73333333  0.16666667  1
  Na  Na4433  1  0.83333333  0.73333333  0.36666667  1
  Na  Na4434  1  0.83333333  0.73333333  0.56666667  1
  Na  Na4435  1  0.83333333  0.73333333  0.76666667  1
  Na  Na4436  1  0.83333333  0.73333333  0.96666667  1
  Na  Na4437  1  0.83333333  0.93333333  0.16666667  1
  Na  Na4438  1  0.83333333  0.93333333  0.36666667  1
  Na  Na4439  1  0.83333333  0.93333333  0.56666667  1
  Na  Na4440  1  0.83333333  0.93333333  0.76666667  1
  Na  Na4441  1  0.83333333  0.93333333  0.96666667  1
  Na  Na4442  1  0.10000000  0.00000000  0.03333333  1
  Na  Na4443  1  0.10000000  0.00000000  0.23333333  1
  Na  Na4444  1  0.10000000  0.00000000  0.43333333  1
  Na  Na4445  1  0.10000000  0.00000000  0.63333333  1
  Na  Na4446  1  0.10000000  0.00000000  0.83333333  1
  Na  Na4447  1  0.10000000  0.20000000  0.03333333  1
  Na  Na4448  1  0.10000000  0.20000000  0.23333333  1
  Na  Na4449  1  0.10000000  0.20000000  0.43333333  1
  Na  Na4450  1  0.10000000  0.20000000  0.63333333  1
  Na  Na4451  1  0.10000000  0.20000000  0.83333333  1
  Na  Na4452  1  0.10000000  0.40000000  0.03333333  1
  Na  Na4453  1  0.10000000  0.40000000  0.23333333  1
  Na  Na4454  1  0.10000000  0.40000000  0.43333333  1
  Na  Na4455  1  0.10000000  0.40000000  0.63333333  1
  Na  Na4456  1  0.10000000  0.40000000  0.83333333  1
  Na  Na4457  1  0.10000000  0.60000000  0.03333333  1
  Na  Na4458  1  0.10000000  0.60000000  0.23333333  1
  Na  Na4459  1  0.10000000  0.60000000  0.43333333  1
  Na  Na4460  1  0.10000000  0.60000000  0.63333333  1
  Na  Na4461  1  0.10000000  0.60000000  0.83333333  1
  Na  Na4462  1  0.10000000  0.80000000  0.03333333  1
  Na  Na4463  1  0.10000000  0.80000000  0.23333333  1
  Na  Na4464  1  0.10000000  0.80000000  0.43333333  1
  Na  Na4465  1  0.10000000  0.80000000  0.63333333  1
  Na  Na4466  1  0.10000000  0.80000000  0.83333333  1
  Na  Na4467  1  0.30000000  0.00000000  0.03333333  1
  Na  Na4468  1  0.30000000  0.00000000  0.23333333  1
  Na  Na4469  1  0.30000000  0.00000000  0.43333333  1
  Na  Na4470  1  0.30000000  0.00000000  0.63333333  1
  Na  Na4471  1  0.30000000  0.00000000  0.83333333  1
  Na  Na4472  1  0.30000000  0.20000000  0.03333333  1
  Na  Na4473  1  0.30000000  0.20000000  0.23333333  1
  Na  Na4474  1  0.30000000  0.20000000  0.43333333  1
  Na  Na4475  1  0.30000000  0.20000000  0.63333333  1
  Na  Na4476  1  0.30000000  0.20000000  0.83333333  1
  Na  Na4477  1  0.30000000  0.40000000  0.03333333  1
  Na  Na4478  1  0.30000000  0.40000000  0.23333333  1
  Na  Na4479  1  0.30000000  0.40000000  0.43333333  1
  Na  Na4480  1  0.30000000  0.40000000  0.63333333  1
  Na  Na4481  1  0.30000000  0.40000000  0.83333333  1
  Na  Na4482  1  0.30000000  0.60000000  0.03333333  1
  Na  Na4483  1  0.30000000  0.60000000  0.23333333  1
  Na  Na4484  1  0.30000000  0.60000000  0.43333333  1
  Na  Na4485  1  0.30000000  0.60000000  0.63333333  1
  Na  Na4486  1  0.30000000  0.60000000  0.83333333  1
  Na  Na4487  1  0.30000000  0.80000000  0.03333333  1
  Na  Na4488  1  0.30000000  0.80000000  0.23333333  1
  Na  Na4489  1  0.30000000  0.80000000  0.43333333  1
  Na  Na4490  1  0.30000000  0.80000000  0.63333333  1
  Na  Na4491  1  0.30000000  0.80000000  0.83333333  1
  Na  Na4492  1  0.50000000  0.00000000  0.03333333  1
  Na  Na4493  1  0.50000000  0.00000000  0.23333333  1
  Na  Na4494  1  0.50000000  0.00000000  0.43333333  1
  Na  Na4495  1  0.50000000  0.00000000  0.63333333  1
  Na  Na4496  1  0.50000000  0.00000000  0.83333333  1
  Na  Na4497  1  0.50000000  0.20000000  0.03333333  1
  Na  Na4498  1  0.50000000  0.20000000  0.23333333  1
  Na  Na4499  1  0.50000000  0.20000000  0.43333333  1
  Na  Na4500  1  0.50000000  0.20000000  0.63333333  1
  Na  Na4501  1  0.50000000  0.20000000  0.83333333  1
  Na  Na4502  1  0.50000000  0.40000000  0.03333333  1
  Na  Na4503  1  0.50000000  0.40000000  0.23333333  1
  Na  Na4504  1  0.50000000  0.40000000  0.43333333  1
  Na  Na4505  1  0.50000000  0.40000000  0.63333333  1
  Na  Na4506  1  0.50000000  0.40000000  0.83333333  1
  Na  Na4507  1  0.50000000  0.60000000  0.03333333  1
  Na  Na4508  1  0.50000000  0.60000000  0.23333333  1
  Na  Na4509  1  0.50000000  0.60000000  0.43333333  1
  Na  Na4510  1  0.50000000  0.60000000  0.63333333  1
  Na  Na4511  1  0.50000000  0.60000000  0.83333333  1
  Na  Na4512  1  0.50000000  0.80000000  0.03333333  1
  Na  Na4513  1  0.50000000  0.80000000  0.23333333  1
  Na  Na4514  1  0.50000000  0.80000000  0.43333333  1
  Na  Na4515  1  0.50000000  0.80000000  0.63333333  1
  Na  Na4516  1  0.50000000  0.80000000  0.83333333  1
  Na  Na4517  1  0.70000000  0.00000000  0.03333333  1
  Na  Na4518  1  0.70000000  0.00000000  0.23333333  1
  Na  Na4519  1  0.70000000  0.00000000  0.43333333  1
  Na  Na4520  1  0.70000000  0.00000000  0.63333333  1
  Na  Na4521  1  0.70000000  0.00000000  0.83333333  1
  Na  Na4522  1  0.70000000  0.20000000  0.03333333  1
  Na  Na4523  1  0.70000000  0.20000000  0.43333333  1
  Na  Na4524  1  0.70000000  0.20000000  0.63333333  1
  Na  Na4525  1  0.70000000  0.20000000  0.83333333  1
  Na  Na4526  1  0.70000000  0.40000000  0.03333333  1
  Na  Na4527  1  0.70000000  0.40000000  0.23333333  1
  Na  Na4528  1  0.70000000  0.40000000  0.43333333  1
  Na  Na4529  1  0.70000000  0.40000000  0.63333333  1
  Na  Na4530  1  0.70000000  0.40000000  0.83333333  1
  Na  Na4531  1  0.70000000  0.60000000  0.03333333  1
  Na  Na4532  1  0.70000000  0.60000000  0.23333333  1
  Na  Na4533  1  0.70000000  0.60000000  0.43333333  1
  Na  Na4534  1  0.70000000  0.60000000  0.63333333  1
  Na  Na4535  1  0.70000000  0.60000000  0.83333333  1
  Na  Na4536  1  0.70000000  0.80000000  0.03333333  1
  Na  Na4537  1  0.70000000  0.80000000  0.23333333  1
  Na  Na4538  1  0.70000000  0.80000000  0.43333333  1
  Na  Na4539  1  0.70000000  0.80000000  0.63333333  1
  Na  Na4540  1  0.70000000  0.80000000  0.83333333  1
  Na  Na4541  1  0.90000000  0.00000000  0.03333333  1
  Na  Na4542  1  0.90000000  0.00000000  0.23333333  1
  Na  Na4543  1  0.90000000  0.00000000  0.43333333  1
  Na  Na4544  1  0.90000000  0.00000000  0.63333333  1
  Na  Na4545  1  0.90000000  0.00000000  0.83333333  1
  Na  Na4546  1  0.90000000  0.20000000  0.03333333  1
  Na  Na4547  1  0.90000000  0.20000000  0.23333333  1
  Na  Na4548  1  0.90000000  0.20000000  0.43333333  1
  Na  Na4549  1  0.90000000  0.20000000  0.63333333  1
  Na  Na4550  1  0.90000000  0.20000000  0.83333333  1
  Na  Na4551  1  0.90000000  0.40000000  0.03333333  1
  Na  Na4552  1  0.90000000  0.40000000  0.23333333  1
  Na  Na4553  1  0.90000000  0.40000000  0.43333333  1
  Na  Na4554  1  0.90000000  0.40000000  0.63333333  1
  Na  Na4555  1  0.90000000  0.40000000  0.83333333  1
  Na  Na4556  1  0.90000000  0.60000000  0.03333333  1
  Na  Na4557  1  0.90000000  0.60000000  0.23333333  1
  Na  Na4558  1  0.90000000  0.60000000  0.43333333  1
  Na  Na4559  1  0.90000000  0.60000000  0.63333333  1
  Na  Na4560  1  0.90000000  0.60000000  0.83333333  1
  Na  Na4561  1  0.90000000  0.80000000  0.03333333  1
  Na  Na4562  1  0.90000000  0.80000000  0.23333333  1
  Na  Na4563  1  0.90000000  0.80000000  0.43333333  1
  Na  Na4564  1  0.90000000  0.80000000  0.63333333  1
  Na  Na4565  1  0.90000000  0.80000000  0.83333333  1
  Na  Na4566  1  0.10000000  0.00000000  0.10000000  1
  Na  Na4567  1  0.10000000  0.00000000  0.30000000  1
  Na  Na4568  1  0.10000000  0.00000000  0.50000000  1
  Na  Na4569  1  0.10000000  0.00000000  0.70000000  1
  Na  Na4570  1  0.10000000  0.00000000  0.90000000  1
  Na  Na4571  1  0.10000000  0.20000000  0.10000000  1
  Na  Na4572  1  0.10000000  0.20000000  0.30000000  1
  Na  Na4573  1  0.10000000  0.20000000  0.50000000  1
  Na  Na4574  1  0.10000000  0.20000000  0.70000000  1
  Na  Na4575  1  0.10000000  0.20000000  0.90000000  1
  Na  Na4576  1  0.10000000  0.40000000  0.10000000  1
  Na  Na4577  1  0.10000000  0.40000000  0.30000000  1
  Na  Na4578  1  0.10000000  0.40000000  0.50000000  1
  Na  Na4579  1  0.10000000  0.40000000  0.70000000  1
  Na  Na4580  1  0.10000000  0.40000000  0.90000000  1
  Na  Na4581  1  0.10000000  0.60000000  0.10000000  1
  Na  Na4582  1  0.10000000  0.60000000  0.30000000  1
  Na  Na4583  1  0.10000000  0.60000000  0.50000000  1
  Na  Na4584  1  0.10000000  0.60000000  0.70000000  1
  Na  Na4585  1  0.10000000  0.60000000  0.90000000  1
  Na  Na4586  1  0.10000000  0.80000000  0.10000000  1
  Na  Na4587  1  0.10000000  0.80000000  0.30000000  1
  Na  Na4588  1  0.10000000  0.80000000  0.50000000  1
  Na  Na4589  1  0.10000000  0.80000000  0.70000000  1
  Na  Na4590  1  0.10000000  0.80000000  0.90000000  1
  Na  Na4591  1  0.30000000  0.00000000  0.10000000  1
  Na  Na4592  1  0.30000000  0.00000000  0.30000000  1
  Na  Na4593  1  0.30000000  0.00000000  0.50000000  1
  Na  Na4594  1  0.30000000  0.00000000  0.70000000  1
  Na  Na4595  1  0.30000000  0.00000000  0.90000000  1
  Na  Na4596  1  0.30000000  0.20000000  0.10000000  1
  Na  Na4597  1  0.30000000  0.20000000  0.30000000  1
  Na  Na4598  1  0.30000000  0.20000000  0.50000000  1
  Na  Na4599  1  0.30000000  0.20000000  0.70000000  1
  Na  Na4600  1  0.30000000  0.20000000  0.90000000  1
  Na  Na4601  1  0.30000000  0.40000000  0.10000000  1
  Na  Na4602  1  0.30000000  0.40000000  0.30000000  1
  Na  Na4603  1  0.30000000  0.40000000  0.50000000  1
  Na  Na4604  1  0.30000000  0.40000000  0.70000000  1
  Na  Na4605  1  0.30000000  0.40000000  0.90000000  1
  Na  Na4606  1  0.30000000  0.60000000  0.10000000  1
  Na  Na4607  1  0.30000000  0.60000000  0.30000000  1
  Na  Na4608  1  0.30000000  0.60000000  0.50000000  1
  Na  Na4609  1  0.30000000  0.60000000  0.70000000  1
  Na  Na4610  1  0.30000000  0.60000000  0.90000000  1
  Na  Na4611  1  0.30000000  0.80000000  0.10000000  1
  Na  Na4612  1  0.30000000  0.80000000  0.30000000  1
  Na  Na4613  1  0.30000000  0.80000000  0.50000000  1
  Na  Na4614  1  0.30000000  0.80000000  0.70000000  1
  Na  Na4615  1  0.30000000  0.80000000  0.90000000  1
  Na  Na4616  1  0.50000000  0.00000000  0.10000000  1
  Na  Na4617  1  0.50000000  0.00000000  0.30000000  1
  Na  Na4618  1  0.50000000  0.00000000  0.50000000  1
  Na  Na4619  1  0.50000000  0.00000000  0.70000000  1
  Na  Na4620  1  0.50000000  0.00000000  0.90000000  1
  Na  Na4621  1  0.50000000  0.20000000  0.10000000  1
  Na  Na4622  1  0.50000000  0.20000000  0.30000000  1
  Na  Na4623  1  0.50000000  0.20000000  0.50000000  1
  Na  Na4624  1  0.50000000  0.20000000  0.70000000  1
  Na  Na4625  1  0.50000000  0.20000000  0.90000000  1
  Na  Na4626  1  0.50000000  0.40000000  0.10000000  1
  Na  Na4627  1  0.50000000  0.40000000  0.30000000  1
  Na  Na4628  1  0.50000000  0.40000000  0.50000000  1
  Na  Na4629  1  0.50000000  0.40000000  0.70000000  1
  Na  Na4630  1  0.50000000  0.40000000  0.90000000  1
  Na  Na4631  1  0.50000000  0.60000000  0.10000000  1
  Na  Na4632  1  0.50000000  0.60000000  0.30000000  1
  Na  Na4633  1  0.50000000  0.60000000  0.50000000  1
  Na  Na4634  1  0.50000000  0.60000000  0.70000000  1
  Na  Na4635  1  0.50000000  0.60000000  0.90000000  1
  Na  Na4636  1  0.50000000  0.80000000  0.10000000  1
  Na  Na4637  1  0.50000000  0.80000000  0.30000000  1
  Na  Na4638  1  0.50000000  0.80000000  0.50000000  1
  Na  Na4639  1  0.50000000  0.80000000  0.70000000  1
  Na  Na4640  1  0.50000000  0.80000000  0.90000000  1
  Na  Na4641  1  0.70000000  0.00000000  0.10000000  1
  Na  Na4642  1  0.70000000  0.00000000  0.30000000  1
  Na  Na4643  1  0.70000000  0.00000000  0.50000000  1
  Na  Na4644  1  0.70000000  0.00000000  0.70000000  1
  Na  Na4645  1  0.70000000  0.00000000  0.90000000  1
  Na  Na4646  1  0.70000000  0.20000000  0.10000000  1
  Na  Na4647  1  0.70000000  0.20000000  0.30000000  1
  Na  Na4648  1  0.70000000  0.20000000  0.50000000  1
  Na  Na4649  1  0.70000000  0.20000000  0.70000000  1
  Na  Na4650  1  0.70000000  0.20000000  0.90000000  1
  Na  Na4651  1  0.70000000  0.40000000  0.10000000  1
  Na  Na4652  1  0.70000000  0.40000000  0.30000000  1
  Na  Na4653  1  0.70000000  0.40000000  0.50000000  1
  Na  Na4654  1  0.70000000  0.40000000  0.70000000  1
  Na  Na4655  1  0.70000000  0.40000000  0.90000000  1
  Na  Na4656  1  0.70000000  0.60000000  0.10000000  1
  Na  Na4657  1  0.70000000  0.60000000  0.30000000  1
  Na  Na4658  1  0.70000000  0.60000000  0.50000000  1
  Na  Na4659  1  0.70000000  0.60000000  0.70000000  1
  Na  Na4660  1  0.70000000  0.60000000  0.90000000  1
  Na  Na4661  1  0.70000000  0.80000000  0.10000000  1
  Na  Na4662  1  0.70000000  0.80000000  0.30000000  1
  Na  Na4663  1  0.70000000  0.80000000  0.50000000  1
  Na  Na4664  1  0.70000000  0.80000000  0.70000000  1
  Na  Na4665  1  0.70000000  0.80000000  0.90000000  1
  Na  Na4666  1  0.90000000  0.00000000  0.10000000  1
  Na  Na4667  1  0.90000000  0.00000000  0.30000000  1
  Na  Na4668  1  0.90000000  0.00000000  0.50000000  1
  Na  Na4669  1  0.90000000  0.00000000  0.70000000  1
  Na  Na4670  1  0.90000000  0.00000000  0.90000000  1
  Na  Na4671  1  0.90000000  0.20000000  0.10000000  1
  Na  Na4672  1  0.90000000  0.20000000  0.30000000  1
  Na  Na4673  1  0.90000000  0.20000000  0.50000000  1
  Na  Na4674  1  0.90000000  0.20000000  0.70000000  1
  Na  Na4675  1  0.90000000  0.20000000  0.90000000  1
  Na  Na4676  1  0.90000000  0.40000000  0.10000000  1
  Na  Na4677  1  0.90000000  0.40000000  0.30000000  1
  Na  Na4678  1  0.90000000  0.40000000  0.50000000  1
  Na  Na4679  1  0.90000000  0.40000000  0.70000000  1
  Na  Na4680  1  0.90000000  0.40000000  0.90000000  1
  Na  Na4681  1  0.90000000  0.60000000  0.10000000  1
  Na  Na4682  1  0.90000000  0.60000000  0.30000000  1
  Na  Na4683  1  0.90000000  0.60000000  0.50000000  1
  Na  Na4684  1  0.90000000  0.60000000  0.70000000  1
  Na  Na4685  1  0.90000000  0.60000000  0.90000000  1
  Na  Na4686  1  0.90000000  0.80000000  0.10000000  1
  Na  Na4687  1  0.90000000  0.80000000  0.30000000  1
  Na  Na4688  1  0.90000000  0.80000000  0.50000000  1
  Na  Na4689  1  0.90000000  0.80000000  0.70000000  1
  Na  Na4690  1  0.90000000  0.80000000  0.90000000  1
  Na  Na4691  1  0.10000000  0.00000000  0.16666667  1
  Na  Na4692  1  0.10000000  0.00000000  0.36666667  1
  Na  Na4693  1  0.10000000  0.00000000  0.56666667  1
  Na  Na4694  1  0.10000000  0.00000000  0.76666667  1
  Na  Na4695  1  0.10000000  0.00000000  0.96666667  1
  Na  Na4696  1  0.10000000  0.20000000  0.16666667  1
  Na  Na4697  1  0.10000000  0.20000000  0.36666667  1
  Na  Na4698  1  0.10000000  0.20000000  0.56666667  1
  Na  Na4699  1  0.10000000  0.20000000  0.76666667  1
  Na  Na4700  1  0.10000000  0.20000000  0.96666667  1
  Na  Na4701  1  0.10000000  0.40000000  0.16666667  1
  Na  Na4702  1  0.10000000  0.40000000  0.36666667  1
  Na  Na4703  1  0.10000000  0.40000000  0.56666667  1
  Na  Na4704  1  0.10000000  0.40000000  0.76666667  1
  Na  Na4705  1  0.10000000  0.40000000  0.96666667  1
  Na  Na4706  1  0.10000000  0.60000000  0.16666667  1
  Na  Na4707  1  0.10000000  0.60000000  0.36666667  1
  Na  Na4708  1  0.10000000  0.60000000  0.56666667  1
  Na  Na4709  1  0.10000000  0.60000000  0.76666667  1
  Na  Na4710  1  0.10000000  0.60000000  0.96666667  1
  Na  Na4711  1  0.10000000  0.80000000  0.16666667  1
  Na  Na4712  1  0.10000000  0.80000000  0.36666667  1
  Na  Na4713  1  0.10000000  0.80000000  0.56666667  1
  Na  Na4714  1  0.10000000  0.80000000  0.76666667  1
  Na  Na4715  1  0.10000000  0.80000000  0.96666667  1
  Na  Na4716  1  0.30000000  0.00000000  0.16666667  1
  Na  Na4717  1  0.30000000  0.00000000  0.36666667  1
  Na  Na4718  1  0.30000000  0.00000000  0.56666667  1
  Na  Na4719  1  0.30000000  0.00000000  0.76666667  1
  Na  Na4720  1  0.30000000  0.00000000  0.96666667  1
  Na  Na4721  1  0.30000000  0.20000000  0.16666667  1
  Na  Na4722  1  0.30000000  0.20000000  0.36666667  1
  Na  Na4723  1  0.30000000  0.20000000  0.56666667  1
  Na  Na4724  1  0.30000000  0.20000000  0.76666667  1
  Na  Na4725  1  0.30000000  0.20000000  0.96666667  1
  Na  Na4726  1  0.30000000  0.40000000  0.16666667  1
  Na  Na4727  1  0.30000000  0.40000000  0.36666667  1
  Na  Na4728  1  0.30000000  0.40000000  0.56666667  1
  Na  Na4729  1  0.30000000  0.40000000  0.76666667  1
  Na  Na4730  1  0.30000000  0.40000000  0.96666667  1
  Na  Na4731  1  0.30000000  0.60000000  0.16666667  1
  Na  Na4732  1  0.30000000  0.60000000  0.36666667  1
  Na  Na4733  1  0.30000000  0.60000000  0.56666667  1
  Na  Na4734  1  0.30000000  0.60000000  0.76666667  1
  Na  Na4735  1  0.30000000  0.60000000  0.96666667  1
  Na  Na4736  1  0.30000000  0.80000000  0.16666667  1
  Na  Na4737  1  0.30000000  0.80000000  0.36666667  1
  Na  Na4738  1  0.30000000  0.80000000  0.56666667  1
  Na  Na4739  1  0.30000000  0.80000000  0.76666667  1
  Na  Na4740  1  0.30000000  0.80000000  0.96666667  1
  Na  Na4741  1  0.50000000  0.00000000  0.16666667  1
  Na  Na4742  1  0.50000000  0.00000000  0.36666667  1
  Na  Na4743  1  0.50000000  0.00000000  0.56666667  1
  Na  Na4744  1  0.50000000  0.00000000  0.76666667  1
  Na  Na4745  1  0.50000000  0.00000000  0.96666667  1
  Na  Na4746  1  0.50000000  0.20000000  0.16666667  1
  Na  Na4747  1  0.50000000  0.20000000  0.36666667  1
  Na  Na4748  1  0.50000000  0.20000000  0.56666667  1
  Na  Na4749  1  0.50000000  0.20000000  0.76666667  1
  Na  Na4750  1  0.50000000  0.20000000  0.96666667  1
  Na  Na4751  1  0.50000000  0.40000000  0.16666667  1
  Na  Na4752  1  0.50000000  0.40000000  0.36666667  1
  Na  Na4753  1  0.50000000  0.40000000  0.56666667  1
  Na  Na4754  1  0.50000000  0.40000000  0.76666667  1
  Na  Na4755  1  0.50000000  0.40000000  0.96666667  1
  Na  Na4756  1  0.50000000  0.60000000  0.16666667  1
  Na  Na4757  1  0.50000000  0.60000000  0.36666667  1
  Na  Na4758  1  0.50000000  0.60000000  0.56666667  1
  Na  Na4759  1  0.50000000  0.60000000  0.76666667  1
  Na  Na4760  1  0.50000000  0.60000000  0.96666667  1
  Na  Na4761  1  0.50000000  0.80000000  0.16666667  1
  Na  Na4762  1  0.50000000  0.80000000  0.36666667  1
  Na  Na4763  1  0.50000000  0.80000000  0.56666667  1
  Na  Na4764  1  0.50000000  0.80000000  0.76666667  1
  Na  Na4765  1  0.50000000  0.80000000  0.96666667  1
  Na  Na4766  1  0.70000000  0.00000000  0.16666667  1
  Na  Na4767  1  0.70000000  0.00000000  0.36666667  1
  Na  Na4768  1  0.70000000  0.00000000  0.56666667  1
  Na  Na4769  1  0.70000000  0.00000000  0.76666667  1
  Na  Na4770  1  0.70000000  0.00000000  0.96666667  1
  Na  Na4771  1  0.70000000  0.20000000  0.16666667  1
  Na  Na4772  1  0.70000000  0.20000000  0.36666667  1
  Na  Na4773  1  0.70000000  0.20000000  0.76666667  1
  Na  Na4774  1  0.70000000  0.20000000  0.96666667  1
  Na  Na4775  1  0.70000000  0.40000000  0.16666667  1
  Na  Na4776  1  0.70000000  0.40000000  0.36666667  1
  Na  Na4777  1  0.70000000  0.40000000  0.56666667  1
  Na  Na4778  1  0.70000000  0.40000000  0.76666667  1
  Na  Na4779  1  0.70000000  0.40000000  0.96666667  1
  Na  Na4780  1  0.70000000  0.60000000  0.16666667  1
  Na  Na4781  1  0.70000000  0.60000000  0.36666667  1
  Na  Na4782  1  0.70000000  0.60000000  0.56666667  1
  Na  Na4783  1  0.70000000  0.60000000  0.76666667  1
  Na  Na4784  1  0.70000000  0.60000000  0.96666667  1
  Na  Na4785  1  0.70000000  0.80000000  0.16666667  1
  Na  Na4786  1  0.70000000  0.80000000  0.36666667  1
  Na  Na4787  1  0.70000000  0.80000000  0.56666667  1
  Na  Na4788  1  0.70000000  0.80000000  0.76666667  1
  Na  Na4789  1  0.70000000  0.80000000  0.96666667  1
  Na  Na4790  1  0.90000000  0.00000000  0.16666667  1
  Na  Na4791  1  0.90000000  0.00000000  0.36666667  1
  Na  Na4792  1  0.90000000  0.00000000  0.56666667  1
  Na  Na4793  1  0.90000000  0.00000000  0.76666667  1
  Na  Na4794  1  0.90000000  0.00000000  0.96666667  1
  Na  Na4795  1  0.90000000  0.20000000  0.16666667  1
  Na  Na4796  1  0.90000000  0.20000000  0.36666667  1
  Na  Na4797  1  0.90000000  0.20000000  0.56666667  1
  Na  Na4798  1  0.90000000  0.20000000  0.76666667  1
  Na  Na4799  1  0.90000000  0.20000000  0.96666667  1
  Na  Na4800  1  0.90000000  0.40000000  0.16666667  1
  Na  Na4801  1  0.90000000  0.40000000  0.36666667  1
  Na  Na4802  1  0.90000000  0.40000000  0.56666667  1
  Na  Na4803  1  0.90000000  0.40000000  0.76666667  1
  Na  Na4804  1  0.90000000  0.40000000  0.96666667  1
  Na  Na4805  1  0.90000000  0.60000000  0.16666667  1
  Na  Na4806  1  0.90000000  0.60000000  0.36666667  1
  Na  Na4807  1  0.90000000  0.60000000  0.56666667  1
  Na  Na4808  1  0.90000000  0.60000000  0.76666667  1
  Na  Na4809  1  0.90000000  0.60000000  0.96666667  1
  Na  Na4810  1  0.90000000  0.80000000  0.16666667  1
  Na  Na4811  1  0.90000000  0.80000000  0.36666667  1
  Na  Na4812  1  0.90000000  0.80000000  0.56666667  1
  Na  Na4813  1  0.90000000  0.80000000  0.76666667  1
  Na  Na4814  1  0.90000000  0.80000000  0.96666667  1
  Na  Na4815  1  0.10000000  0.06666667  0.03333333  1
  Na  Na4816  1  0.10000000  0.06666667  0.23333333  1
  Na  Na4817  1  0.10000000  0.06666667  0.43333333  1
  Na  Na4818  1  0.10000000  0.06666667  0.63333333  1
  Na  Na4819  1  0.10000000  0.06666667  0.83333333  1
  Na  Na4820  1  0.10000000  0.26666667  0.03333333  1
  Na  Na4821  1  0.10000000  0.26666667  0.23333333  1
  Na  Na4822  1  0.10000000  0.26666667  0.43333333  1
  Na  Na4823  1  0.10000000  0.26666667  0.63333333  1
  Na  Na4824  1  0.10000000  0.26666667  0.83333333  1
  Na  Na4825  1  0.10000000  0.46666667  0.03333333  1
  Na  Na4826  1  0.10000000  0.46666667  0.23333333  1
  Na  Na4827  1  0.10000000  0.46666667  0.43333333  1
  Na  Na4828  1  0.10000000  0.46666667  0.63333333  1
  Na  Na4829  1  0.10000000  0.46666667  0.83333333  1
  Na  Na4830  1  0.10000000  0.66666667  0.03333333  1
  Na  Na4831  1  0.10000000  0.66666667  0.23333333  1
  Na  Na4832  1  0.10000000  0.66666667  0.43333333  1
  Na  Na4833  1  0.10000000  0.66666667  0.63333333  1
  Na  Na4834  1  0.10000000  0.66666667  0.83333333  1
  Na  Na4835  1  0.10000000  0.86666667  0.03333333  1
  Na  Na4836  1  0.10000000  0.86666667  0.23333333  1
  Na  Na4837  1  0.10000000  0.86666667  0.43333333  1
  Na  Na4838  1  0.10000000  0.86666667  0.63333333  1
  Na  Na4839  1  0.10000000  0.86666667  0.83333333  1
  Na  Na4840  1  0.30000000  0.06666667  0.03333333  1
  Na  Na4841  1  0.30000000  0.06666667  0.23333333  1
  Na  Na4842  1  0.30000000  0.06666667  0.43333333  1
  Na  Na4843  1  0.30000000  0.06666667  0.63333333  1
  Na  Na4844  1  0.30000000  0.06666667  0.83333333  1
  Na  Na4845  1  0.30000000  0.26666667  0.03333333  1
  Na  Na4846  1  0.30000000  0.26666667  0.23333333  1
  Na  Na4847  1  0.30000000  0.26666667  0.43333333  1
  Na  Na4848  1  0.30000000  0.26666667  0.63333333  1
  Na  Na4849  1  0.30000000  0.26666667  0.83333333  1
  Na  Na4850  1  0.30000000  0.46666667  0.03333333  1
  Na  Na4851  1  0.30000000  0.46666667  0.23333333  1
  Na  Na4852  1  0.30000000  0.46666667  0.43333333  1
  Na  Na4853  1  0.30000000  0.46666667  0.63333333  1
  Na  Na4854  1  0.30000000  0.46666667  0.83333333  1
  Na  Na4855  1  0.30000000  0.66666667  0.03333333  1
  Na  Na4856  1  0.30000000  0.66666667  0.23333333  1
  Na  Na4857  1  0.30000000  0.66666667  0.43333333  1
  Na  Na4858  1  0.30000000  0.66666667  0.63333333  1
  Na  Na4859  1  0.30000000  0.66666667  0.83333333  1
  Na  Na4860  1  0.30000000  0.86666667  0.03333333  1
  Na  Na4861  1  0.30000000  0.86666667  0.23333333  1
  Na  Na4862  1  0.30000000  0.86666667  0.43333333  1
  Na  Na4863  1  0.30000000  0.86666667  0.63333333  1
  Na  Na4864  1  0.30000000  0.86666667  0.83333333  1
  Na  Na4865  1  0.50000000  0.06666667  0.03333333  1
  Na  Na4866  1  0.50000000  0.06666667  0.23333333  1
  Na  Na4867  1  0.50000000  0.06666667  0.43333333  1
  Na  Na4868  1  0.50000000  0.06666667  0.63333333  1
  Na  Na4869  1  0.50000000  0.06666667  0.83333333  1
  Na  Na4870  1  0.50000000  0.26666667  0.03333333  1
  Na  Na4871  1  0.50000000  0.26666667  0.23333333  1
  Na  Na4872  1  0.50000000  0.26666667  0.43333333  1
  Na  Na4873  1  0.50000000  0.26666667  0.63333333  1
  Na  Na4874  1  0.50000000  0.26666667  0.83333333  1
  Na  Na4875  1  0.50000000  0.46666667  0.03333333  1
  Na  Na4876  1  0.50000000  0.46666667  0.23333333  1
  Na  Na4877  1  0.50000000  0.46666667  0.43333333  1
  Na  Na4878  1  0.50000000  0.46666667  0.63333333  1
  Na  Na4879  1  0.50000000  0.46666667  0.83333333  1
  Na  Na4880  1  0.50000000  0.66666667  0.03333333  1
  Na  Na4881  1  0.50000000  0.66666667  0.43333333  1
  Na  Na4882  1  0.50000000  0.66666667  0.63333333  1
  Na  Na4883  1  0.50000000  0.66666667  0.83333333  1
  Na  Na4884  1  0.50000000  0.86666667  0.03333333  1
  Na  Na4885  1  0.50000000  0.86666667  0.23333333  1
  Na  Na4886  1  0.50000000  0.86666667  0.43333333  1
  Na  Na4887  1  0.50000000  0.86666667  0.63333333  1
  Na  Na4888  1  0.50000000  0.86666667  0.83333333  1
  Na  Na4889  1  0.70000000  0.06666667  0.03333333  1
  Na  Na4890  1  0.70000000  0.06666667  0.23333333  1
  Na  Na4891  1  0.70000000  0.06666667  0.43333333  1
  Na  Na4892  1  0.70000000  0.06666667  0.63333333  1
  Na  Na4893  1  0.70000000  0.06666667  0.83333333  1
  Na  Na4894  1  0.70000000  0.26666667  0.03333333  1
  Na  Na4895  1  0.70000000  0.26666667  0.23333333  1
  Na  Na4896  1  0.70000000  0.26666667  0.43333333  1
  Na  Na4897  1  0.70000000  0.26666667  0.63333333  1
  Na  Na4898  1  0.70000000  0.26666667  0.83333333  1
  Na  Na4899  1  0.70000000  0.46666667  0.03333333  1
  Na  Na4900  1  0.70000000  0.46666667  0.23333333  1
  Na  Na4901  1  0.70000000  0.46666667  0.43333333  1
  Na  Na4902  1  0.70000000  0.46666667  0.63333333  1
  Na  Na4903  1  0.70000000  0.46666667  0.83333333  1
  Na  Na4904  1  0.70000000  0.66666667  0.03333333  1
  Na  Na4905  1  0.70000000  0.66666667  0.23333333  1
  Na  Na4906  1  0.70000000  0.66666667  0.43333333  1
  Na  Na4907  1  0.70000000  0.66666667  0.63333333  1
  Na  Na4908  1  0.70000000  0.66666667  0.83333333  1
  Na  Na4909  1  0.70000000  0.86666667  0.03333333  1
  Na  Na4910  1  0.70000000  0.86666667  0.23333333  1
  Na  Na4911  1  0.70000000  0.86666667  0.43333333  1
  Na  Na4912  1  0.70000000  0.86666667  0.63333333  1
  Na  Na4913  1  0.70000000  0.86666667  0.83333333  1
  Na  Na4914  1  0.90000000  0.06666667  0.03333333  1
  Na  Na4915  1  0.90000000  0.06666667  0.23333333  1
  Na  Na4916  1  0.90000000  0.06666667  0.43333333  1
  Na  Na4917  1  0.90000000  0.06666667  0.63333333  1
  Na  Na4918  1  0.90000000  0.06666667  0.83333333  1
  Na  Na4919  1  0.90000000  0.26666667  0.03333333  1
  Na  Na4920  1  0.90000000  0.26666667  0.23333333  1
  Na  Na4921  1  0.90000000  0.26666667  0.43333333  1
  Na  Na4922  1  0.90000000  0.26666667  0.63333333  1
  Na  Na4923  1  0.90000000  0.26666667  0.83333333  1
  Na  Na4924  1  0.90000000  0.46666667  0.03333333  1
  Na  Na4925  1  0.90000000  0.46666667  0.23333333  1
  Na  Na4926  1  0.90000000  0.46666667  0.43333333  1
  Na  Na4927  1  0.90000000  0.46666667  0.63333333  1
  Na  Na4928  1  0.90000000  0.46666667  0.83333333  1
  Na  Na4929  1  0.90000000  0.66666667  0.03333333  1
  Na  Na4930  1  0.90000000  0.66666667  0.23333333  1
  Na  Na4931  1  0.90000000  0.66666667  0.43333333  1
  Na  Na4932  1  0.90000000  0.66666667  0.63333333  1
  Na  Na4933  1  0.90000000  0.66666667  0.83333333  1
  Na  Na4934  1  0.90000000  0.86666667  0.03333333  1
  Na  Na4935  1  0.90000000  0.86666667  0.23333333  1
  Na  Na4936  1  0.90000000  0.86666667  0.43333333  1
  Na  Na4937  1  0.90000000  0.86666667  0.63333333  1
  Na  Na4938  1  0.90000000  0.86666667  0.83333333  1
  Na  Na4939  1  0.10000000  0.06666667  0.10000000  1
  Na  Na4940  1  0.10000000  0.06666667  0.30000000  1
  Na  Na4941  1  0.10000000  0.06666667  0.50000000  1
  Na  Na4942  1  0.10000000  0.06666667  0.70000000  1
  Na  Na4943  1  0.10000000  0.06666667  0.90000000  1
  Na  Na4944  1  0.10000000  0.26666667  0.10000000  1
  Na  Na4945  1  0.10000000  0.26666667  0.30000000  1
  Na  Na4946  1  0.10000000  0.26666667  0.50000000  1
  Na  Na4947  1  0.10000000  0.26666667  0.70000000  1
  Na  Na4948  1  0.10000000  0.26666667  0.90000000  1
  Na  Na4949  1  0.10000000  0.46666667  0.10000000  1
  Na  Na4950  1  0.10000000  0.46666667  0.30000000  1
  Na  Na4951  1  0.10000000  0.46666667  0.50000000  1
  Na  Na4952  1  0.10000000  0.46666667  0.70000000  1
  Na  Na4953  1  0.10000000  0.46666667  0.90000000  1
  Na  Na4954  1  0.10000000  0.66666667  0.10000000  1
  Na  Na4955  1  0.10000000  0.66666667  0.30000000  1
  Na  Na4956  1  0.10000000  0.66666667  0.50000000  1
  Na  Na4957  1  0.10000000  0.66666667  0.70000000  1
  Na  Na4958  1  0.10000000  0.66666667  0.90000000  1
  Na  Na4959  1  0.10000000  0.86666667  0.10000000  1
  Na  Na4960  1  0.10000000  0.86666667  0.30000000  1
  Na  Na4961  1  0.10000000  0.86666667  0.50000000  1
  Na  Na4962  1  0.10000000  0.86666667  0.70000000  1
  Na  Na4963  1  0.10000000  0.86666667  0.90000000  1
  Na  Na4964  1  0.30000000  0.06666667  0.10000000  1
  Na  Na4965  1  0.30000000  0.06666667  0.30000000  1
  Na  Na4966  1  0.30000000  0.06666667  0.50000000  1
  Na  Na4967  1  0.30000000  0.06666667  0.70000000  1
  Na  Na4968  1  0.30000000  0.06666667  0.90000000  1
  Na  Na4969  1  0.30000000  0.26666667  0.10000000  1
  Na  Na4970  1  0.30000000  0.26666667  0.30000000  1
  Na  Na4971  1  0.30000000  0.26666667  0.50000000  1
  Na  Na4972  1  0.30000000  0.26666667  0.70000000  1
  Na  Na4973  1  0.30000000  0.26666667  0.90000000  1
  Na  Na4974  1  0.30000000  0.46666667  0.10000000  1
  Na  Na4975  1  0.30000000  0.46666667  0.30000000  1
  Na  Na4976  1  0.30000000  0.46666667  0.50000000  1
  Na  Na4977  1  0.30000000  0.46666667  0.70000000  1
  Na  Na4978  1  0.30000000  0.46666667  0.90000000  1
  Na  Na4979  1  0.30000000  0.66666667  0.10000000  1
  Na  Na4980  1  0.30000000  0.66666667  0.30000000  1
  Na  Na4981  1  0.30000000  0.66666667  0.50000000  1
  Na  Na4982  1  0.30000000  0.66666667  0.70000000  1
  Na  Na4983  1  0.30000000  0.66666667  0.90000000  1
  Na  Na4984  1  0.30000000  0.86666667  0.10000000  1
  Na  Na4985  1  0.30000000  0.86666667  0.30000000  1
  Na  Na4986  1  0.30000000  0.86666667  0.50000000  1
  Na  Na4987  1  0.30000000  0.86666667  0.70000000  1
  Na  Na4988  1  0.30000000  0.86666667  0.90000000  1
  Na  Na4989  1  0.50000000  0.06666667  0.10000000  1
  Na  Na4990  1  0.50000000  0.06666667  0.30000000  1
  Na  Na4991  1  0.50000000  0.06666667  0.50000000  1
  Na  Na4992  1  0.50000000  0.06666667  0.70000000  1
  Na  Na4993  1  0.50000000  0.06666667  0.90000000  1
  Na  Na4994  1  0.50000000  0.26666667  0.10000000  1
  Na  Na4995  1  0.50000000  0.26666667  0.30000000  1
  Na  Na4996  1  0.50000000  0.26666667  0.50000000  1
  Na  Na4997  1  0.50000000  0.26666667  0.70000000  1
  Na  Na4998  1  0.50000000  0.26666667  0.90000000  1
  Na  Na4999  1  0.50000000  0.46666667  0.10000000  1
  Na  Na5000  1  0.50000000  0.46666667  0.30000000  1
  Na  Na5001  1  0.50000000  0.46666667  0.50000000  1
  Na  Na5002  1  0.50000000  0.46666667  0.70000000  1
  Na  Na5003  1  0.50000000  0.46666667  0.90000000  1
  Na  Na5004  1  0.50000000  0.66666667  0.10000000  1
  Na  Na5005  1  0.50000000  0.66666667  0.30000000  1
  Na  Na5006  1  0.50000000  0.66666667  0.50000000  1
  Na  Na5007  1  0.50000000  0.66666667  0.70000000  1
  Na  Na5008  1  0.50000000  0.66666667  0.90000000  1
  Na  Na5009  1  0.50000000  0.86666667  0.10000000  1
  Na  Na5010  1  0.50000000  0.86666667  0.30000000  1
  Na  Na5011  1  0.50000000  0.86666667  0.50000000  1
  Na  Na5012  1  0.50000000  0.86666667  0.70000000  1
  Na  Na5013  1  0.50000000  0.86666667  0.90000000  1
  Na  Na5014  1  0.70000000  0.06666667  0.10000000  1
  Na  Na5015  1  0.70000000  0.06666667  0.30000000  1
  Na  Na5016  1  0.70000000  0.06666667  0.50000000  1
  Na  Na5017  1  0.70000000  0.06666667  0.70000000  1
  Na  Na5018  1  0.70000000  0.06666667  0.90000000  1
  Na  Na5019  1  0.70000000  0.26666667  0.10000000  1
  Na  Na5020  1  0.70000000  0.26666667  0.30000000  1
  Na  Na5021  1  0.70000000  0.26666667  0.50000000  1
  Na  Na5022  1  0.70000000  0.26666667  0.70000000  1
  Na  Na5023  1  0.70000000  0.26666667  0.90000000  1
  Na  Na5024  1  0.70000000  0.46666667  0.10000000  1
  Na  Na5025  1  0.70000000  0.46666667  0.30000000  1
  Na  Na5026  1  0.70000000  0.46666667  0.50000000  1
  Na  Na5027  1  0.70000000  0.46666667  0.70000000  1
  Na  Na5028  1  0.70000000  0.46666667  0.90000000  1
  Na  Na5029  1  0.70000000  0.66666667  0.10000000  1
  Na  Na5030  1  0.70000000  0.66666667  0.30000000  1
  Na  Na5031  1  0.70000000  0.66666667  0.50000000  1
  Na  Na5032  1  0.70000000  0.66666667  0.70000000  1
  Na  Na5033  1  0.70000000  0.66666667  0.90000000  1
  Na  Na5034  1  0.70000000  0.86666667  0.10000000  1
  Na  Na5035  1  0.70000000  0.86666667  0.30000000  1
  Na  Na5036  1  0.70000000  0.86666667  0.50000000  1
  Na  Na5037  1  0.70000000  0.86666667  0.70000000  1
  Na  Na5038  1  0.70000000  0.86666667  0.90000000  1
  Na  Na5039  1  0.90000000  0.06666667  0.10000000  1
  Na  Na5040  1  0.90000000  0.06666667  0.30000000  1
  Na  Na5041  1  0.90000000  0.06666667  0.50000000  1
  Na  Na5042  1  0.90000000  0.06666667  0.70000000  1
  Na  Na5043  1  0.90000000  0.06666667  0.90000000  1
  Na  Na5044  1  0.90000000  0.26666667  0.10000000  1
  Na  Na5045  1  0.90000000  0.26666667  0.30000000  1
  Na  Na5046  1  0.90000000  0.26666667  0.50000000  1
  Na  Na5047  1  0.90000000  0.26666667  0.70000000  1
  Na  Na5048  1  0.90000000  0.26666667  0.90000000  1
  Na  Na5049  1  0.90000000  0.46666667  0.10000000  1
  Na  Na5050  1  0.90000000  0.46666667  0.30000000  1
  Na  Na5051  1  0.90000000  0.46666667  0.50000000  1
  Na  Na5052  1  0.90000000  0.46666667  0.70000000  1
  Na  Na5053  1  0.90000000  0.46666667  0.90000000  1
  Na  Na5054  1  0.90000000  0.66666667  0.10000000  1
  Na  Na5055  1  0.90000000  0.66666667  0.30000000  1
  Na  Na5056  1  0.90000000  0.66666667  0.50000000  1
  Na  Na5057  1  0.90000000  0.66666667  0.70000000  1
  Na  Na5058  1  0.90000000  0.66666667  0.90000000  1
  Na  Na5059  1  0.90000000  0.86666667  0.10000000  1
  Na  Na5060  1  0.90000000  0.86666667  0.30000000  1
  Na  Na5061  1  0.90000000  0.86666667  0.50000000  1
  Na  Na5062  1  0.90000000  0.86666667  0.70000000  1
  Na  Na5063  1  0.90000000  0.86666667  0.90000000  1
  Na  Na5064  1  0.10000000  0.06666667  0.16666667  1
  Na  Na5065  1  0.10000000  0.06666667  0.36666667  1
  Na  Na5066  1  0.10000000  0.06666667  0.56666667  1
  Na  Na5067  1  0.10000000  0.06666667  0.76666667  1
  Na  Na5068  1  0.10000000  0.06666667  0.96666667  1
  Na  Na5069  1  0.10000000  0.26666667  0.16666667  1
  Na  Na5070  1  0.10000000  0.26666667  0.36666667  1
  Na  Na5071  1  0.10000000  0.26666667  0.56666667  1
  Na  Na5072  1  0.10000000  0.26666667  0.76666667  1
  Na  Na5073  1  0.10000000  0.26666667  0.96666667  1
  Na  Na5074  1  0.10000000  0.46666667  0.16666667  1
  Na  Na5075  1  0.10000000  0.46666667  0.36666667  1
  Na  Na5076  1  0.10000000  0.46666667  0.56666667  1
  Na  Na5077  1  0.10000000  0.46666667  0.76666667  1
  Na  Na5078  1  0.10000000  0.46666667  0.96666667  1
  Na  Na5079  1  0.10000000  0.66666667  0.16666667  1
  Na  Na5080  1  0.10000000  0.66666667  0.36666667  1
  Na  Na5081  1  0.10000000  0.66666667  0.56666667  1
  Na  Na5082  1  0.10000000  0.66666667  0.76666667  1
  Na  Na5083  1  0.10000000  0.66666667  0.96666667  1
  Na  Na5084  1  0.10000000  0.86666667  0.16666667  1
  Na  Na5085  1  0.10000000  0.86666667  0.36666667  1
  Na  Na5086  1  0.10000000  0.86666667  0.56666667  1
  Na  Na5087  1  0.10000000  0.86666667  0.76666667  1
  Na  Na5088  1  0.10000000  0.86666667  0.96666667  1
  Na  Na5089  1  0.30000000  0.06666667  0.16666667  1
  Na  Na5090  1  0.30000000  0.06666667  0.36666667  1
  Na  Na5091  1  0.30000000  0.06666667  0.56666667  1
  Na  Na5092  1  0.30000000  0.06666667  0.76666667  1
  Na  Na5093  1  0.30000000  0.06666667  0.96666667  1
  Na  Na5094  1  0.30000000  0.26666667  0.16666667  1
  Na  Na5095  1  0.30000000  0.26666667  0.36666667  1
  Na  Na5096  1  0.30000000  0.26666667  0.56666667  1
  Na  Na5097  1  0.30000000  0.26666667  0.76666667  1
  Na  Na5098  1  0.30000000  0.26666667  0.96666667  1
  Na  Na5099  1  0.30000000  0.46666667  0.16666667  1
  Na  Na5100  1  0.30000000  0.46666667  0.36666667  1
  Na  Na5101  1  0.30000000  0.46666667  0.56666667  1
  Na  Na5102  1  0.30000000  0.46666667  0.76666667  1
  Na  Na5103  1  0.30000000  0.46666667  0.96666667  1
  Na  Na5104  1  0.30000000  0.66666667  0.16666667  1
  Na  Na5105  1  0.30000000  0.66666667  0.36666667  1
  Na  Na5106  1  0.30000000  0.66666667  0.56666667  1
  Na  Na5107  1  0.30000000  0.66666667  0.76666667  1
  Na  Na5108  1  0.30000000  0.66666667  0.96666667  1
  Na  Na5109  1  0.30000000  0.86666667  0.16666667  1
  Na  Na5110  1  0.30000000  0.86666667  0.36666667  1
  Na  Na5111  1  0.30000000  0.86666667  0.56666667  1
  Na  Na5112  1  0.30000000  0.86666667  0.76666667  1
  Na  Na5113  1  0.30000000  0.86666667  0.96666667  1
  Na  Na5114  1  0.50000000  0.06666667  0.16666667  1
  Na  Na5115  1  0.50000000  0.06666667  0.36666667  1
  Na  Na5116  1  0.50000000  0.06666667  0.56666667  1
  Na  Na5117  1  0.50000000  0.06666667  0.76666667  1
  Na  Na5118  1  0.50000000  0.06666667  0.96666667  1
  Na  Na5119  1  0.50000000  0.26666667  0.16666667  1
  Na  Na5120  1  0.50000000  0.26666667  0.36666667  1
  Na  Na5121  1  0.50000000  0.26666667  0.56666667  1
  Na  Na5122  1  0.50000000  0.26666667  0.76666667  1
  Na  Na5123  1  0.50000000  0.26666667  0.96666667  1
  Na  Na5124  1  0.50000000  0.46666667  0.16666667  1
  Na  Na5125  1  0.50000000  0.46666667  0.36666667  1
  Na  Na5126  1  0.50000000  0.46666667  0.56666667  1
  Na  Na5127  1  0.50000000  0.46666667  0.76666667  1
  Na  Na5128  1  0.50000000  0.46666667  0.96666667  1
  Na  Na5129  1  0.50000000  0.66666667  0.16666667  1
  Na  Na5130  1  0.50000000  0.66666667  0.36666667  1
  Na  Na5131  1  0.50000000  0.66666667  0.56666667  1
  Na  Na5132  1  0.50000000  0.66666667  0.76666667  1
  Na  Na5133  1  0.50000000  0.86666667  0.16666667  1
  Na  Na5134  1  0.50000000  0.86666667  0.56666667  1
  Na  Na5135  1  0.50000000  0.86666667  0.76666667  1
  Na  Na5136  1  0.50000000  0.86666667  0.96666667  1
  Na  Na5137  1  0.70000000  0.06666667  0.16666667  1
  Na  Na5138  1  0.70000000  0.06666667  0.36666667  1
  Na  Na5139  1  0.70000000  0.06666667  0.56666667  1
  Na  Na5140  1  0.70000000  0.06666667  0.76666667  1
  Na  Na5141  1  0.70000000  0.06666667  0.96666667  1
  Na  Na5142  1  0.70000000  0.26666667  0.16666667  1
  Na  Na5143  1  0.70000000  0.26666667  0.36666667  1
  Na  Na5144  1  0.70000000  0.26666667  0.56666667  1
  Na  Na5145  1  0.70000000  0.26666667  0.76666667  1
  Na  Na5146  1  0.70000000  0.26666667  0.96666667  1
  Na  Na5147  1  0.70000000  0.46666667  0.16666667  1
  Na  Na5148  1  0.70000000  0.46666667  0.36666667  1
  Na  Na5149  1  0.70000000  0.46666667  0.56666667  1
  Na  Na5150  1  0.70000000  0.46666667  0.76666667  1
  Na  Na5151  1  0.70000000  0.46666667  0.96666667  1
  Na  Na5152  1  0.70000000  0.66666667  0.16666667  1
  Na  Na5153  1  0.70000000  0.66666667  0.36666667  1
  Na  Na5154  1  0.70000000  0.66666667  0.56666667  1
  Na  Na5155  1  0.70000000  0.66666667  0.76666667  1
  Na  Na5156  1  0.70000000  0.66666667  0.96666667  1
  Na  Na5157  1  0.70000000  0.86666667  0.16666667  1
  Na  Na5158  1  0.70000000  0.86666667  0.36666667  1
  Na  Na5159  1  0.70000000  0.86666667  0.56666667  1
  Na  Na5160  1  0.70000000  0.86666667  0.76666667  1
  Na  Na5161  1  0.70000000  0.86666667  0.96666667  1
  Na  Na5162  1  0.90000000  0.06666667  0.16666667  1
  Na  Na5163  1  0.90000000  0.06666667  0.36666667  1
  Na  Na5164  1  0.90000000  0.06666667  0.56666667  1
  Na  Na5165  1  0.90000000  0.06666667  0.76666667  1
  Na  Na5166  1  0.90000000  0.06666667  0.96666667  1
  Na  Na5167  1  0.90000000  0.26666667  0.16666667  1
  Na  Na5168  1  0.90000000  0.26666667  0.36666667  1
  Na  Na5169  1  0.90000000  0.26666667  0.56666667  1
  Na  Na5170  1  0.90000000  0.26666667  0.76666667  1
  Na  Na5171  1  0.90000000  0.26666667  0.96666667  1
  Na  Na5172  1  0.90000000  0.46666667  0.16666667  1
  Na  Na5173  1  0.90000000  0.46666667  0.36666667  1
  Na  Na5174  1  0.90000000  0.46666667  0.56666667  1
  Na  Na5175  1  0.90000000  0.46666667  0.76666667  1
  Na  Na5176  1  0.90000000  0.46666667  0.96666667  1
  Na  Na5177  1  0.90000000  0.66666667  0.16666667  1
  Na  Na5178  1  0.90000000  0.66666667  0.36666667  1
  Na  Na5179  1  0.90000000  0.66666667  0.56666667  1
  Na  Na5180  1  0.90000000  0.66666667  0.76666667  1
  Na  Na5181  1  0.90000000  0.66666667  0.96666667  1
  Na  Na5182  1  0.90000000  0.86666667  0.16666667  1
  Na  Na5183  1  0.90000000  0.86666667  0.36666667  1
  Na  Na5184  1  0.90000000  0.86666667  0.56666667  1
  Na  Na5185  1  0.90000000  0.86666667  0.76666667  1
  Na  Na5186  1  0.90000000  0.86666667  0.96666667  1
  Na  Na5187  1  0.10000000  0.13333333  0.03333333  1
  Na  Na5188  1  0.10000000  0.13333333  0.23333333  1
  Na  Na5189  1  0.10000000  0.13333333  0.43333333  1
  Na  Na5190  1  0.10000000  0.13333333  0.63333333  1
  Na  Na5191  1  0.10000000  0.13333333  0.83333333  1
  Na  Na5192  1  0.10000000  0.33333333  0.03333333  1
  Na  Na5193  1  0.10000000  0.33333333  0.23333333  1
  Na  Na5194  1  0.10000000  0.33333333  0.43333333  1
  Na  Na5195  1  0.10000000  0.33333333  0.63333333  1
  Na  Na5196  1  0.10000000  0.33333333  0.83333333  1
  Na  Na5197  1  0.10000000  0.53333333  0.03333333  1
  Na  Na5198  1  0.10000000  0.53333333  0.23333333  1
  Na  Na5199  1  0.10000000  0.53333333  0.43333333  1
  Na  Na5200  1  0.10000000  0.53333333  0.63333333  1
  Na  Na5201  1  0.10000000  0.53333333  0.83333333  1
  Na  Na5202  1  0.10000000  0.73333333  0.03333333  1
  Na  Na5203  1  0.10000000  0.73333333  0.23333333  1
  Na  Na5204  1  0.10000000  0.73333333  0.43333333  1
  Na  Na5205  1  0.10000000  0.73333333  0.63333333  1
  Na  Na5206  1  0.10000000  0.73333333  0.83333333  1
  Na  Na5207  1  0.10000000  0.93333333  0.03333333  1
  Na  Na5208  1  0.10000000  0.93333333  0.23333333  1
  Na  Na5209  1  0.10000000  0.93333333  0.43333333  1
  Na  Na5210  1  0.10000000  0.93333333  0.63333333  1
  Na  Na5211  1  0.10000000  0.93333333  0.83333333  1
  Na  Na5212  1  0.30000000  0.13333333  0.03333333  1
  Na  Na5213  1  0.30000000  0.13333333  0.23333333  1
  Na  Na5214  1  0.30000000  0.13333333  0.43333333  1
  Na  Na5215  1  0.30000000  0.13333333  0.63333333  1
  Na  Na5216  1  0.30000000  0.13333333  0.83333333  1
  Na  Na5217  1  0.30000000  0.33333333  0.03333333  1
  Na  Na5218  1  0.30000000  0.33333333  0.23333333  1
  Na  Na5219  1  0.30000000  0.33333333  0.43333333  1
  Na  Na5220  1  0.30000000  0.33333333  0.63333333  1
  Na  Na5221  1  0.30000000  0.33333333  0.83333333  1
  Na  Na5222  1  0.30000000  0.53333333  0.03333333  1
  Na  Na5223  1  0.30000000  0.53333333  0.23333333  1
  Na  Na5224  1  0.30000000  0.53333333  0.43333333  1
  Na  Na5225  1  0.30000000  0.53333333  0.63333333  1
  Na  Na5226  1  0.30000000  0.53333333  0.83333333  1
  Na  Na5227  1  0.30000000  0.73333333  0.03333333  1
  Na  Na5228  1  0.30000000  0.73333333  0.23333333  1
  Na  Na5229  1  0.30000000  0.73333333  0.43333333  1
  Na  Na5230  1  0.30000000  0.73333333  0.63333333  1
  Na  Na5231  1  0.30000000  0.73333333  0.83333333  1
  Na  Na5232  1  0.30000000  0.93333333  0.03333333  1
  Na  Na5233  1  0.30000000  0.93333333  0.23333333  1
  Na  Na5234  1  0.30000000  0.93333333  0.43333333  1
  Na  Na5235  1  0.30000000  0.93333333  0.63333333  1
  Na  Na5236  1  0.30000000  0.93333333  0.83333333  1
  Na  Na5237  1  0.50000000  0.13333333  0.03333333  1
  Na  Na5238  1  0.50000000  0.13333333  0.23333333  1
  Na  Na5239  1  0.50000000  0.13333333  0.43333333  1
  Na  Na5240  1  0.50000000  0.13333333  0.63333333  1
  Na  Na5241  1  0.50000000  0.13333333  0.83333333  1
  Na  Na5242  1  0.50000000  0.33333333  0.03333333  1
  Na  Na5243  1  0.50000000  0.33333333  0.23333333  1
  Na  Na5244  1  0.50000000  0.33333333  0.43333333  1
  Na  Na5245  1  0.50000000  0.33333333  0.63333333  1
  Na  Na5246  1  0.50000000  0.33333333  0.83333333  1
  Na  Na5247  1  0.50000000  0.53333333  0.03333333  1
  Na  Na5248  1  0.50000000  0.53333333  0.23333333  1
  Na  Na5249  1  0.50000000  0.53333333  0.43333333  1
  Na  Na5250  1  0.50000000  0.53333333  0.63333333  1
  Na  Na5251  1  0.50000000  0.53333333  0.83333333  1
  Na  Na5252  1  0.50000000  0.73333333  0.03333333  1
  Na  Na5253  1  0.50000000  0.73333333  0.23333333  1
  Na  Na5254  1  0.50000000  0.73333333  0.43333333  1
  Na  Na5255  1  0.50000000  0.73333333  0.63333333  1
  Na  Na5256  1  0.50000000  0.73333333  0.83333333  1
  Na  Na5257  1  0.50000000  0.93333333  0.03333333  1
  Na  Na5258  1  0.50000000  0.93333333  0.23333333  1
  Na  Na5259  1  0.50000000  0.93333333  0.43333333  1
  Na  Na5260  1  0.50000000  0.93333333  0.63333333  1
  Na  Na5261  1  0.50000000  0.93333333  0.83333333  1
  Na  Na5262  1  0.70000000  0.13333333  0.03333333  1
  Na  Na5263  1  0.70000000  0.13333333  0.23333333  1
  Na  Na5264  1  0.70000000  0.13333333  0.43333333  1
  Na  Na5265  1  0.70000000  0.13333333  0.63333333  1
  Na  Na5266  1  0.70000000  0.13333333  0.83333333  1
  Na  Na5267  1  0.70000000  0.33333333  0.03333333  1
  Na  Na5268  1  0.70000000  0.33333333  0.23333333  1
  Na  Na5269  1  0.70000000  0.33333333  0.43333333  1
  Na  Na5270  1  0.70000000  0.33333333  0.63333333  1
  Na  Na5271  1  0.70000000  0.33333333  0.83333333  1
  Na  Na5272  1  0.70000000  0.53333333  0.03333333  1
  Na  Na5273  1  0.70000000  0.53333333  0.23333333  1
  Na  Na5274  1  0.70000000  0.53333333  0.63333333  1
  Na  Na5275  1  0.70000000  0.53333333  0.83333333  1
  Na  Na5276  1  0.70000000  0.73333333  0.03333333  1
  Na  Na5277  1  0.70000000  0.73333333  0.23333333  1
  Na  Na5278  1  0.70000000  0.73333333  0.43333333  1
  Na  Na5279  1  0.70000000  0.73333333  0.63333333  1
  Na  Na5280  1  0.70000000  0.73333333  0.83333333  1
  Na  Na5281  1  0.70000000  0.93333333  0.03333333  1
  Na  Na5282  1  0.70000000  0.93333333  0.23333333  1
  Na  Na5283  1  0.70000000  0.93333333  0.63333333  1
  Na  Na5284  1  0.70000000  0.93333333  0.83333333  1
  Na  Na5285  1  0.90000000  0.13333333  0.03333333  1
  Na  Na5286  1  0.90000000  0.13333333  0.23333333  1
  Na  Na5287  1  0.90000000  0.13333333  0.43333333  1
  Na  Na5288  1  0.90000000  0.13333333  0.63333333  1
  Na  Na5289  1  0.90000000  0.13333333  0.83333333  1
  Na  Na5290  1  0.90000000  0.33333333  0.03333333  1
  Na  Na5291  1  0.90000000  0.33333333  0.23333333  1
  Na  Na5292  1  0.90000000  0.33333333  0.43333333  1
  Na  Na5293  1  0.90000000  0.33333333  0.63333333  1
  Na  Na5294  1  0.90000000  0.33333333  0.83333333  1
  Na  Na5295  1  0.90000000  0.53333333  0.03333333  1
  Na  Na5296  1  0.90000000  0.53333333  0.23333333  1
  Na  Na5297  1  0.90000000  0.53333333  0.43333333  1
  Na  Na5298  1  0.90000000  0.53333333  0.63333333  1
  Na  Na5299  1  0.90000000  0.53333333  0.83333333  1
  Na  Na5300  1  0.90000000  0.73333333  0.03333333  1
  Na  Na5301  1  0.90000000  0.73333333  0.23333333  1
  Na  Na5302  1  0.90000000  0.73333333  0.43333333  1
  Na  Na5303  1  0.90000000  0.73333333  0.63333333  1
  Na  Na5304  1  0.90000000  0.73333333  0.83333333  1
  Na  Na5305  1  0.90000000  0.93333333  0.03333333  1
  Na  Na5306  1  0.90000000  0.93333333  0.23333333  1
  Na  Na5307  1  0.90000000  0.93333333  0.43333333  1
  Na  Na5308  1  0.90000000  0.93333333  0.63333333  1
  Na  Na5309  1  0.90000000  0.93333333  0.83333333  1
  Na  Na5310  1  0.10000000  0.13333333  0.10000000  1
  Na  Na5311  1  0.10000000  0.13333333  0.30000000  1
  Na  Na5312  1  0.10000000  0.13333333  0.50000000  1
  Na  Na5313  1  0.10000000  0.13333333  0.70000000  1
  Na  Na5314  1  0.10000000  0.13333333  0.90000000  1
  Na  Na5315  1  0.10000000  0.33333333  0.10000000  1
  Na  Na5316  1  0.10000000  0.33333333  0.30000000  1
  Na  Na5317  1  0.10000000  0.33333333  0.50000000  1
  Na  Na5318  1  0.10000000  0.33333333  0.70000000  1
  Na  Na5319  1  0.10000000  0.33333333  0.90000000  1
  Na  Na5320  1  0.10000000  0.53333333  0.30000000  1
  Na  Na5321  1  0.10000000  0.53333333  0.50000000  1
  Na  Na5322  1  0.10000000  0.53333333  0.70000000  1
  Na  Na5323  1  0.10000000  0.53333333  0.90000000  1
  Na  Na5324  1  0.10000000  0.73333333  0.10000000  1
  Na  Na5325  1  0.10000000  0.73333333  0.30000000  1
  Na  Na5326  1  0.10000000  0.73333333  0.50000000  1
  Na  Na5327  1  0.10000000  0.73333333  0.70000000  1
  Na  Na5328  1  0.10000000  0.73333333  0.90000000  1
  Na  Na5329  1  0.10000000  0.93333333  0.10000000  1
  Na  Na5330  1  0.10000000  0.93333333  0.30000000  1
  Na  Na5331  1  0.10000000  0.93333333  0.70000000  1
  Na  Na5332  1  0.10000000  0.93333333  0.90000000  1
  Na  Na5333  1  0.30000000  0.13333333  0.10000000  1
  Na  Na5334  1  0.30000000  0.13333333  0.30000000  1
  Na  Na5335  1  0.30000000  0.13333333  0.50000000  1
  Na  Na5336  1  0.30000000  0.13333333  0.70000000  1
  Na  Na5337  1  0.30000000  0.13333333  0.90000000  1
  Na  Na5338  1  0.30000000  0.33333333  0.10000000  1
  Na  Na5339  1  0.30000000  0.33333333  0.30000000  1
  Na  Na5340  1  0.30000000  0.33333333  0.50000000  1
  Na  Na5341  1  0.30000000  0.33333333  0.70000000  1
  Na  Na5342  1  0.30000000  0.33333333  0.90000000  1
  Na  Na5343  1  0.30000000  0.53333333  0.10000000  1
  Na  Na5344  1  0.30000000  0.53333333  0.30000000  1
  Na  Na5345  1  0.30000000  0.53333333  0.50000000  1
  Na  Na5346  1  0.30000000  0.53333333  0.90000000  1
  Na  Na5347  1  0.30000000  0.73333333  0.10000000  1
  Na  Na5348  1  0.30000000  0.73333333  0.30000000  1
  Na  Na5349  1  0.30000000  0.73333333  0.50000000  1
  Na  Na5350  1  0.30000000  0.73333333  0.70000000  1
  Na  Na5351  1  0.30000000  0.73333333  0.90000000  1
  Na  Na5352  1  0.30000000  0.93333333  0.10000000  1
  Na  Na5353  1  0.30000000  0.93333333  0.30000000  1
  Na  Na5354  1  0.30000000  0.93333333  0.50000000  1
  Na  Na5355  1  0.30000000  0.93333333  0.70000000  1
  Na  Na5356  1  0.30000000  0.93333333  0.90000000  1
  Na  Na5357  1  0.50000000  0.13333333  0.10000000  1
  Na  Na5358  1  0.50000000  0.13333333  0.30000000  1
  Na  Na5359  1  0.50000000  0.13333333  0.50000000  1
  Na  Na5360  1  0.50000000  0.13333333  0.70000000  1
  Na  Na5361  1  0.50000000  0.13333333  0.90000000  1
  Na  Na5362  1  0.50000000  0.33333333  0.10000000  1
  Na  Na5363  1  0.50000000  0.33333333  0.30000000  1
  Na  Na5364  1  0.50000000  0.33333333  0.50000000  1
  Na  Na5365  1  0.50000000  0.33333333  0.70000000  1
  Na  Na5366  1  0.50000000  0.33333333  0.90000000  1
  Na  Na5367  1  0.50000000  0.53333333  0.10000000  1
  Na  Na5368  1  0.50000000  0.53333333  0.30000000  1
  Na  Na5369  1  0.50000000  0.53333333  0.50000000  1
  Na  Na5370  1  0.50000000  0.53333333  0.70000000  1
  Na  Na5371  1  0.50000000  0.53333333  0.90000000  1
  Na  Na5372  1  0.50000000  0.73333333  0.10000000  1
  Na  Na5373  1  0.50000000  0.73333333  0.30000000  1
  Na  Na5374  1  0.50000000  0.73333333  0.50000000  1
  Na  Na5375  1  0.50000000  0.73333333  0.70000000  1
  Na  Na5376  1  0.50000000  0.73333333  0.90000000  1
  Na  Na5377  1  0.50000000  0.93333333  0.10000000  1
  Na  Na5378  1  0.50000000  0.93333333  0.30000000  1
  Na  Na5379  1  0.50000000  0.93333333  0.50000000  1
  Na  Na5380  1  0.50000000  0.93333333  0.70000000  1
  Na  Na5381  1  0.50000000  0.93333333  0.90000000  1
  Na  Na5382  1  0.70000000  0.13333333  0.10000000  1
  Na  Na5383  1  0.70000000  0.13333333  0.30000000  1
  Na  Na5384  1  0.70000000  0.13333333  0.50000000  1
  Na  Na5385  1  0.70000000  0.13333333  0.70000000  1
  Na  Na5386  1  0.70000000  0.13333333  0.90000000  1
  Na  Na5387  1  0.70000000  0.33333333  0.10000000  1
  Na  Na5388  1  0.70000000  0.33333333  0.30000000  1
  Na  Na5389  1  0.70000000  0.33333333  0.50000000  1
  Na  Na5390  1  0.70000000  0.33333333  0.70000000  1
  Na  Na5391  1  0.70000000  0.33333333  0.90000000  1
  Na  Na5392  1  0.70000000  0.53333333  0.10000000  1
  Na  Na5393  1  0.70000000  0.53333333  0.30000000  1
  Na  Na5394  1  0.70000000  0.53333333  0.50000000  1
  Na  Na5395  1  0.70000000  0.53333333  0.70000000  1
  Na  Na5396  1  0.70000000  0.53333333  0.90000000  1
  Na  Na5397  1  0.70000000  0.73333333  0.10000000  1
  Na  Na5398  1  0.70000000  0.73333333  0.30000000  1
  Na  Na5399  1  0.70000000  0.73333333  0.50000000  1
  Na  Na5400  1  0.70000000  0.73333333  0.70000000  1
  Na  Na5401  1  0.70000000  0.73333333  0.90000000  1
  Na  Na5402  1  0.70000000  0.93333333  0.10000000  1
  Na  Na5403  1  0.70000000  0.93333333  0.30000000  1
  Na  Na5404  1  0.70000000  0.93333333  0.50000000  1
  Na  Na5405  1  0.70000000  0.93333333  0.70000000  1
  Na  Na5406  1  0.70000000  0.93333333  0.90000000  1
  Na  Na5407  1  0.90000000  0.13333333  0.10000000  1
  Na  Na5408  1  0.90000000  0.13333333  0.30000000  1
  Na  Na5409  1  0.90000000  0.13333333  0.50000000  1
  Na  Na5410  1  0.90000000  0.13333333  0.70000000  1
  Na  Na5411  1  0.90000000  0.13333333  0.90000000  1
  Na  Na5412  1  0.90000000  0.33333333  0.10000000  1
  Na  Na5413  1  0.90000000  0.33333333  0.30000000  1
  Na  Na5414  1  0.90000000  0.33333333  0.50000000  1
  Na  Na5415  1  0.90000000  0.33333333  0.70000000  1
  Na  Na5416  1  0.90000000  0.33333333  0.90000000  1
  Na  Na5417  1  0.90000000  0.53333333  0.10000000  1
  Na  Na5418  1  0.90000000  0.53333333  0.30000000  1
  Na  Na5419  1  0.90000000  0.53333333  0.50000000  1
  Na  Na5420  1  0.90000000  0.53333333  0.70000000  1
  Na  Na5421  1  0.90000000  0.53333333  0.90000000  1
  Na  Na5422  1  0.90000000  0.73333333  0.10000000  1
  Na  Na5423  1  0.90000000  0.73333333  0.30000000  1
  Na  Na5424  1  0.90000000  0.73333333  0.50000000  1
  Na  Na5425  1  0.90000000  0.73333333  0.70000000  1
  Na  Na5426  1  0.90000000  0.73333333  0.90000000  1
  Na  Na5427  1  0.90000000  0.93333333  0.10000000  1
  Na  Na5428  1  0.90000000  0.93333333  0.30000000  1
  Na  Na5429  1  0.90000000  0.93333333  0.50000000  1
  Na  Na5430  1  0.90000000  0.93333333  0.70000000  1
  Na  Na5431  1  0.90000000  0.93333333  0.90000000  1
  Na  Na5432  1  0.10000000  0.13333333  0.16666667  1
  Na  Na5433  1  0.10000000  0.13333333  0.36666667  1
  Na  Na5434  1  0.10000000  0.13333333  0.56666667  1
  Na  Na5435  1  0.10000000  0.13333333  0.76666667  1
  Na  Na5436  1  0.10000000  0.13333333  0.96666667  1
  Na  Na5437  1  0.10000000  0.33333333  0.16666667  1
  Na  Na5438  1  0.10000000  0.33333333  0.36666667  1
  Na  Na5439  1  0.10000000  0.33333333  0.56666667  1
  Na  Na5440  1  0.10000000  0.33333333  0.76666667  1
  Na  Na5441  1  0.10000000  0.33333333  0.96666667  1
  Na  Na5442  1  0.10000000  0.53333333  0.16666667  1
  Na  Na5443  1  0.10000000  0.53333333  0.36666667  1
  Na  Na5444  1  0.10000000  0.53333333  0.56666667  1
  Na  Na5445  1  0.10000000  0.53333333  0.76666667  1
  Na  Na5446  1  0.10000000  0.53333333  0.96666667  1
  Na  Na5447  1  0.10000000  0.73333333  0.16666667  1
  Na  Na5448  1  0.10000000  0.73333333  0.36666667  1
  Na  Na5449  1  0.10000000  0.73333333  0.56666667  1
  Na  Na5450  1  0.10000000  0.73333333  0.76666667  1
  Na  Na5451  1  0.10000000  0.73333333  0.96666667  1
  Na  Na5452  1  0.10000000  0.93333333  0.16666667  1
  Na  Na5453  1  0.10000000  0.93333333  0.36666667  1
  Na  Na5454  1  0.10000000  0.93333333  0.56666667  1
  Na  Na5455  1  0.10000000  0.93333333  0.76666667  1
  Na  Na5456  1  0.10000000  0.93333333  0.96666667  1
  Na  Na5457  1  0.30000000  0.13333333  0.16666667  1
  Na  Na5458  1  0.30000000  0.13333333  0.36666667  1
  Na  Na5459  1  0.30000000  0.13333333  0.56666667  1
  Na  Na5460  1  0.30000000  0.13333333  0.76666667  1
  Na  Na5461  1  0.30000000  0.13333333  0.96666667  1
  Na  Na5462  1  0.30000000  0.33333333  0.16666667  1
  Na  Na5463  1  0.30000000  0.33333333  0.36666667  1
  Na  Na5464  1  0.30000000  0.33333333  0.56666667  1
  Na  Na5465  1  0.30000000  0.33333333  0.76666667  1
  Na  Na5466  1  0.30000000  0.33333333  0.96666667  1
  Na  Na5467  1  0.30000000  0.53333333  0.16666667  1
  Na  Na5468  1  0.30000000  0.53333333  0.56666667  1
  Na  Na5469  1  0.30000000  0.53333333  0.76666667  1
  Na  Na5470  1  0.30000000  0.53333333  0.96666667  1
  Na  Na5471  1  0.30000000  0.73333333  0.16666667  1
  Na  Na5472  1  0.30000000  0.73333333  0.36666667  1
  Na  Na5473  1  0.30000000  0.73333333  0.56666667  1
  Na  Na5474  1  0.30000000  0.73333333  0.76666667  1
  Na  Na5475  1  0.30000000  0.73333333  0.96666667  1
  Na  Na5476  1  0.30000000  0.93333333  0.16666667  1
  Na  Na5477  1  0.30000000  0.93333333  0.36666667  1
  Na  Na5478  1  0.30000000  0.93333333  0.56666667  1
  Na  Na5479  1  0.30000000  0.93333333  0.76666667  1
  Na  Na5480  1  0.30000000  0.93333333  0.96666667  1
  Na  Na5481  1  0.50000000  0.13333333  0.16666667  1
  Na  Na5482  1  0.50000000  0.13333333  0.36666667  1
  Na  Na5483  1  0.50000000  0.13333333  0.56666667  1
  Na  Na5484  1  0.50000000  0.13333333  0.76666667  1
  Na  Na5485  1  0.50000000  0.13333333  0.96666667  1
  Na  Na5486  1  0.50000000  0.33333333  0.16666667  1
  Na  Na5487  1  0.50000000  0.33333333  0.36666667  1
  Na  Na5488  1  0.50000000  0.33333333  0.56666667  1
  Na  Na5489  1  0.50000000  0.33333333  0.76666667  1
  Na  Na5490  1  0.50000000  0.33333333  0.96666667  1
  Na  Na5491  1  0.50000000  0.53333333  0.16666667  1
  Na  Na5492  1  0.50000000  0.53333333  0.36666667  1
  Na  Na5493  1  0.50000000  0.53333333  0.56666667  1
  Na  Na5494  1  0.50000000  0.53333333  0.76666667  1
  Na  Na5495  1  0.50000000  0.53333333  0.96666667  1
  Na  Na5496  1  0.50000000  0.73333333  0.16666667  1
  Na  Na5497  1  0.50000000  0.73333333  0.36666667  1
  Na  Na5498  1  0.50000000  0.73333333  0.56666667  1
  Na  Na5499  1  0.50000000  0.73333333  0.76666667  1
  Na  Na5500  1  0.50000000  0.73333333  0.96666667  1
  Na  Na5501  1  0.50000000  0.93333333  0.16666667  1
  Na  Na5502  1  0.50000000  0.93333333  0.36666667  1
  Na  Na5503  1  0.50000000  0.93333333  0.56666667  1
  Na  Na5504  1  0.50000000  0.93333333  0.76666667  1
  Na  Na5505  1  0.50000000  0.93333333  0.96666667  1
  Na  Na5506  1  0.70000000  0.13333333  0.16666667  1
  Na  Na5507  1  0.70000000  0.13333333  0.36666667  1
  Na  Na5508  1  0.70000000  0.13333333  0.56666667  1
  Na  Na5509  1  0.70000000  0.13333333  0.76666667  1
  Na  Na5510  1  0.70000000  0.13333333  0.96666667  1
  Na  Na5511  1  0.70000000  0.33333333  0.16666667  1
  Na  Na5512  1  0.70000000  0.33333333  0.36666667  1
  Na  Na5513  1  0.70000000  0.33333333  0.56666667  1
  Na  Na5514  1  0.70000000  0.33333333  0.76666667  1
  Na  Na5515  1  0.70000000  0.33333333  0.96666667  1
  Na  Na5516  1  0.70000000  0.53333333  0.36666667  1
  Na  Na5517  1  0.70000000  0.53333333  0.56666667  1
  Na  Na5518  1  0.70000000  0.53333333  0.76666667  1
  Na  Na5519  1  0.70000000  0.53333333  0.96666667  1
  Na  Na5520  1  0.70000000  0.73333333  0.16666667  1
  Na  Na5521  1  0.70000000  0.73333333  0.56666667  1
  Na  Na5522  1  0.70000000  0.73333333  0.76666667  1
  Na  Na5523  1  0.70000000  0.73333333  0.96666667  1
  Na  Na5524  1  0.70000000  0.93333333  0.16666667  1
  Na  Na5525  1  0.70000000  0.93333333  0.36666667  1
  Na  Na5526  1  0.70000000  0.93333333  0.56666667  1
  Na  Na5527  1  0.70000000  0.93333333  0.76666667  1
  Na  Na5528  1  0.70000000  0.93333333  0.96666667  1
  Na  Na5529  1  0.90000000  0.13333333  0.16666667  1
  Na  Na5530  1  0.90000000  0.13333333  0.36666667  1
  Na  Na5531  1  0.90000000  0.13333333  0.56666667  1
  Na  Na5532  1  0.90000000  0.13333333  0.76666667  1
  Na  Na5533  1  0.90000000  0.13333333  0.96666667  1
  Na  Na5534  1  0.90000000  0.33333333  0.16666667  1
  Na  Na5535  1  0.90000000  0.33333333  0.36666667  1
  Na  Na5536  1  0.90000000  0.33333333  0.56666667  1
  Na  Na5537  1  0.90000000  0.33333333  0.76666667  1
  Na  Na5538  1  0.90000000  0.33333333  0.96666667  1
  Na  Na5539  1  0.90000000  0.53333333  0.16666667  1
  Na  Na5540  1  0.90000000  0.53333333  0.36666667  1
  Na  Na5541  1  0.90000000  0.53333333  0.56666667  1
  Na  Na5542  1  0.90000000  0.53333333  0.76666667  1
  Na  Na5543  1  0.90000000  0.53333333  0.96666667  1
  Na  Na5544  1  0.90000000  0.73333333  0.16666667  1
  Na  Na5545  1  0.90000000  0.73333333  0.36666667  1
  Na  Na5546  1  0.90000000  0.73333333  0.56666667  1
  Na  Na5547  1  0.90000000  0.73333333  0.76666667  1
  Na  Na5548  1  0.90000000  0.73333333  0.96666667  1
  Na  Na5549  1  0.90000000  0.93333333  0.16666667  1
  Na  Na5550  1  0.90000000  0.93333333  0.36666667  1
  Na  Na5551  1  0.90000000  0.93333333  0.56666667  1
  Na  Na5552  1  0.90000000  0.93333333  0.76666667  1
  Na  Na5553  1  0.90000000  0.93333333  0.96666667  1
  Na  Na5554  1  0.16666667  0.00000000  0.03333333  1
  Na  Na5555  1  0.16666667  0.00000000  0.23333333  1
  Na  Na5556  1  0.16666667  0.00000000  0.43333333  1
  Na  Na5557  1  0.16666667  0.00000000  0.63333333  1
  Na  Na5558  1  0.16666667  0.00000000  0.83333333  1
  Na  Na5559  1  0.16666667  0.20000000  0.03333333  1
  Na  Na5560  1  0.16666667  0.20000000  0.23333333  1
  Na  Na5561  1  0.16666667  0.20000000  0.43333333  1
  Na  Na5562  1  0.16666667  0.20000000  0.63333333  1
  Na  Na5563  1  0.16666667  0.20000000  0.83333333  1
  Na  Na5564  1  0.16666667  0.40000000  0.03333333  1
  Na  Na5565  1  0.16666667  0.40000000  0.23333333  1
  Na  Na5566  1  0.16666667  0.40000000  0.43333333  1
  Na  Na5567  1  0.16666667  0.40000000  0.63333333  1
  Na  Na5568  1  0.16666667  0.40000000  0.83333333  1
  Na  Na5569  1  0.16666667  0.60000000  0.03333333  1
  Na  Na5570  1  0.16666667  0.60000000  0.23333333  1
  Na  Na5571  1  0.16666667  0.60000000  0.43333333  1
  Na  Na5572  1  0.16666667  0.60000000  0.63333333  1
  Na  Na5573  1  0.16666667  0.60000000  0.83333333  1
  Na  Na5574  1  0.16666667  0.80000000  0.03333333  1
  Na  Na5575  1  0.16666667  0.80000000  0.23333333  1
  Na  Na5576  1  0.16666667  0.80000000  0.43333333  1
  Na  Na5577  1  0.16666667  0.80000000  0.63333333  1
  Na  Na5578  1  0.36666667  0.00000000  0.03333333  1
  Na  Na5579  1  0.36666667  0.00000000  0.23333333  1
  Na  Na5580  1  0.36666667  0.00000000  0.43333333  1
  Na  Na5581  1  0.36666667  0.00000000  0.63333333  1
  Na  Na5582  1  0.36666667  0.00000000  0.83333333  1
  Na  Na5583  1  0.36666667  0.20000000  0.03333333  1
  Na  Na5584  1  0.36666667  0.20000000  0.23333333  1
  Na  Na5585  1  0.36666667  0.20000000  0.43333333  1
  Na  Na5586  1  0.36666667  0.20000000  0.63333333  1
  Na  Na5587  1  0.36666667  0.20000000  0.83333333  1
  Na  Na5588  1  0.36666667  0.40000000  0.03333333  1
  Na  Na5589  1  0.36666667  0.40000000  0.23333333  1
  Na  Na5590  1  0.36666667  0.40000000  0.43333333  1
  Na  Na5591  1  0.36666667  0.40000000  0.63333333  1
  Na  Na5592  1  0.36666667  0.40000000  0.83333333  1
  Na  Na5593  1  0.36666667  0.60000000  0.03333333  1
  Na  Na5594  1  0.36666667  0.60000000  0.23333333  1
  Na  Na5595  1  0.36666667  0.60000000  0.43333333  1
  Na  Na5596  1  0.36666667  0.60000000  0.63333333  1
  Na  Na5597  1  0.36666667  0.60000000  0.83333333  1
  Na  Na5598  1  0.36666667  0.80000000  0.03333333  1
  Na  Na5599  1  0.36666667  0.80000000  0.23333333  1
  Na  Na5600  1  0.36666667  0.80000000  0.43333333  1
  Na  Na5601  1  0.36666667  0.80000000  0.63333333  1
  Na  Na5602  1  0.36666667  0.80000000  0.83333333  1
  Na  Na5603  1  0.56666667  0.00000000  0.03333333  1
  Na  Na5604  1  0.56666667  0.00000000  0.23333333  1
  Na  Na5605  1  0.56666667  0.00000000  0.43333333  1
  Na  Na5606  1  0.56666667  0.00000000  0.63333333  1
  Na  Na5607  1  0.56666667  0.00000000  0.83333333  1
  Na  Na5608  1  0.56666667  0.20000000  0.03333333  1
  Na  Na5609  1  0.56666667  0.20000000  0.23333333  1
  Na  Na5610  1  0.56666667  0.20000000  0.43333333  1
  Na  Na5611  1  0.56666667  0.20000000  0.63333333  1
  Na  Na5612  1  0.56666667  0.20000000  0.83333333  1
  Na  Na5613  1  0.56666667  0.40000000  0.03333333  1
  Na  Na5614  1  0.56666667  0.40000000  0.23333333  1
  Na  Na5615  1  0.56666667  0.40000000  0.43333333  1
  Na  Na5616  1  0.56666667  0.40000000  0.63333333  1
  Na  Na5617  1  0.56666667  0.40000000  0.83333333  1
  Na  Na5618  1  0.56666667  0.60000000  0.03333333  1
  Na  Na5619  1  0.56666667  0.60000000  0.23333333  1
  Na  Na5620  1  0.56666667  0.60000000  0.43333333  1
  Na  Na5621  1  0.56666667  0.60000000  0.63333333  1
  Na  Na5622  1  0.56666667  0.60000000  0.83333333  1
  Na  Na5623  1  0.56666667  0.80000000  0.03333333  1
  Na  Na5624  1  0.56666667  0.80000000  0.23333333  1
  Na  Na5625  1  0.56666667  0.80000000  0.43333333  1
  Na  Na5626  1  0.56666667  0.80000000  0.63333333  1
  Na  Na5627  1  0.56666667  0.80000000  0.83333333  1
  Na  Na5628  1  0.76666667  0.00000000  0.03333333  1
  Na  Na5629  1  0.76666667  0.00000000  0.23333333  1
  Na  Na5630  1  0.76666667  0.00000000  0.43333333  1
  Na  Na5631  1  0.76666667  0.00000000  0.63333333  1
  Na  Na5632  1  0.76666667  0.00000000  0.83333333  1
  Na  Na5633  1  0.76666667  0.20000000  0.03333333  1
  Na  Na5634  1  0.76666667  0.20000000  0.23333333  1
  Na  Na5635  1  0.76666667  0.20000000  0.43333333  1
  Na  Na5636  1  0.76666667  0.20000000  0.63333333  1
  Na  Na5637  1  0.76666667  0.20000000  0.83333333  1
  Na  Na5638  1  0.76666667  0.40000000  0.03333333  1
  Na  Na5639  1  0.76666667  0.40000000  0.23333333  1
  Na  Na5640  1  0.76666667  0.40000000  0.43333333  1
  Na  Na5641  1  0.76666667  0.40000000  0.63333333  1
  Na  Na5642  1  0.76666667  0.40000000  0.83333333  1
  Na  Na5643  1  0.76666667  0.60000000  0.03333333  1
  Na  Na5644  1  0.76666667  0.60000000  0.23333333  1
  Na  Na5645  1  0.76666667  0.60000000  0.43333333  1
  Na  Na5646  1  0.76666667  0.60000000  0.63333333  1
  Na  Na5647  1  0.76666667  0.60000000  0.83333333  1
  Na  Na5648  1  0.76666667  0.80000000  0.03333333  1
  Na  Na5649  1  0.76666667  0.80000000  0.23333333  1
  Na  Na5650  1  0.76666667  0.80000000  0.43333333  1
  Na  Na5651  1  0.76666667  0.80000000  0.63333333  1
  Na  Na5652  1  0.76666667  0.80000000  0.83333333  1
  Na  Na5653  1  0.96666667  0.00000000  0.03333333  1
  Na  Na5654  1  0.96666667  0.00000000  0.23333333  1
  Na  Na5655  1  0.96666667  0.00000000  0.43333333  1
  Na  Na5656  1  0.96666667  0.00000000  0.63333333  1
  Na  Na5657  1  0.96666667  0.00000000  0.83333333  1
  Na  Na5658  1  0.96666667  0.20000000  0.03333333  1
  Na  Na5659  1  0.96666667  0.20000000  0.23333333  1
  Na  Na5660  1  0.96666667  0.20000000  0.43333333  1
  Na  Na5661  1  0.96666667  0.20000000  0.63333333  1
  Na  Na5662  1  0.96666667  0.20000000  0.83333333  1
  Na  Na5663  1  0.96666667  0.40000000  0.03333333  1
  Na  Na5664  1  0.96666667  0.40000000  0.23333333  1
  Na  Na5665  1  0.96666667  0.40000000  0.43333333  1
  Na  Na5666  1  0.96666667  0.40000000  0.63333333  1
  Na  Na5667  1  0.96666667  0.40000000  0.83333333  1
  Na  Na5668  1  0.96666667  0.60000000  0.03333333  1
  Na  Na5669  1  0.96666667  0.60000000  0.23333333  1
  Na  Na5670  1  0.96666667  0.60000000  0.43333333  1
  Na  Na5671  1  0.96666667  0.60000000  0.63333333  1
  Na  Na5672  1  0.96666667  0.60000000  0.83333333  1
  Na  Na5673  1  0.96666667  0.80000000  0.03333333  1
  Na  Na5674  1  0.96666667  0.80000000  0.23333333  1
  Na  Na5675  1  0.96666667  0.80000000  0.43333333  1
  Na  Na5676  1  0.96666667  0.80000000  0.63333333  1
  Na  Na5677  1  0.96666667  0.80000000  0.83333333  1
  Na  Na5678  1  0.16666667  0.00000000  0.10000000  1
  Na  Na5679  1  0.16666667  0.00000000  0.30000000  1
  Na  Na5680  1  0.16666667  0.00000000  0.50000000  1
  Na  Na5681  1  0.16666667  0.00000000  0.70000000  1
  Na  Na5682  1  0.16666667  0.00000000  0.90000000  1
  Na  Na5683  1  0.16666667  0.20000000  0.10000000  1
  Na  Na5684  1  0.16666667  0.20000000  0.30000000  1
  Na  Na5685  1  0.16666667  0.20000000  0.50000000  1
  Na  Na5686  1  0.16666667  0.20000000  0.70000000  1
  Na  Na5687  1  0.16666667  0.20000000  0.90000000  1
  Na  Na5688  1  0.16666667  0.40000000  0.10000000  1
  Na  Na5689  1  0.16666667  0.40000000  0.30000000  1
  Na  Na5690  1  0.16666667  0.40000000  0.50000000  1
  Na  Na5691  1  0.16666667  0.40000000  0.70000000  1
  Na  Na5692  1  0.16666667  0.40000000  0.90000000  1
  Na  Na5693  1  0.16666667  0.60000000  0.10000000  1
  Na  Na5694  1  0.16666667  0.60000000  0.30000000  1
  Na  Na5695  1  0.16666667  0.60000000  0.50000000  1
  Na  Na5696  1  0.16666667  0.60000000  0.70000000  1
  Na  Na5697  1  0.16666667  0.60000000  0.90000000  1
  Na  Na5698  1  0.16666667  0.80000000  0.10000000  1
  Na  Na5699  1  0.16666667  0.80000000  0.30000000  1
  Na  Na5700  1  0.16666667  0.80000000  0.50000000  1
  Na  Na5701  1  0.16666667  0.80000000  0.70000000  1
  Na  Na5702  1  0.16666667  0.80000000  0.90000000  1
  Na  Na5703  1  0.36666667  0.00000000  0.10000000  1
  Na  Na5704  1  0.36666667  0.00000000  0.30000000  1
  Na  Na5705  1  0.36666667  0.00000000  0.50000000  1
  Na  Na5706  1  0.36666667  0.00000000  0.70000000  1
  Na  Na5707  1  0.36666667  0.00000000  0.90000000  1
  Na  Na5708  1  0.36666667  0.20000000  0.10000000  1
  Na  Na5709  1  0.36666667  0.20000000  0.30000000  1
  Na  Na5710  1  0.36666667  0.20000000  0.50000000  1
  Na  Na5711  1  0.36666667  0.20000000  0.70000000  1
  Na  Na5712  1  0.36666667  0.20000000  0.90000000  1
  Na  Na5713  1  0.36666667  0.40000000  0.10000000  1
  Na  Na5714  1  0.36666667  0.40000000  0.30000000  1
  Na  Na5715  1  0.36666667  0.40000000  0.50000000  1
  Na  Na5716  1  0.36666667  0.40000000  0.70000000  1
  Na  Na5717  1  0.36666667  0.40000000  0.90000000  1
  Na  Na5718  1  0.36666667  0.60000000  0.10000000  1
  Na  Na5719  1  0.36666667  0.60000000  0.30000000  1
  Na  Na5720  1  0.36666667  0.60000000  0.50000000  1
  Na  Na5721  1  0.36666667  0.60000000  0.70000000  1
  Na  Na5722  1  0.36666667  0.60000000  0.90000000  1
  Na  Na5723  1  0.36666667  0.80000000  0.10000000  1
  Na  Na5724  1  0.36666667  0.80000000  0.30000000  1
  Na  Na5725  1  0.36666667  0.80000000  0.50000000  1
  Na  Na5726  1  0.36666667  0.80000000  0.70000000  1
  Na  Na5727  1  0.56666667  0.00000000  0.10000000  1
  Na  Na5728  1  0.56666667  0.00000000  0.30000000  1
  Na  Na5729  1  0.56666667  0.00000000  0.50000000  1
  Na  Na5730  1  0.56666667  0.00000000  0.70000000  1
  Na  Na5731  1  0.56666667  0.00000000  0.90000000  1
  Na  Na5732  1  0.56666667  0.20000000  0.10000000  1
  Na  Na5733  1  0.56666667  0.20000000  0.30000000  1
  Na  Na5734  1  0.56666667  0.20000000  0.50000000  1
  Na  Na5735  1  0.56666667  0.20000000  0.70000000  1
  Na  Na5736  1  0.56666667  0.20000000  0.90000000  1
  Na  Na5737  1  0.56666667  0.40000000  0.10000000  1
  Na  Na5738  1  0.56666667  0.40000000  0.30000000  1
  Na  Na5739  1  0.56666667  0.40000000  0.50000000  1
  Na  Na5740  1  0.56666667  0.40000000  0.70000000  1
  Na  Na5741  1  0.56666667  0.40000000  0.90000000  1
  Na  Na5742  1  0.56666667  0.60000000  0.10000000  1
  Na  Na5743  1  0.56666667  0.60000000  0.30000000  1
  Na  Na5744  1  0.56666667  0.60000000  0.50000000  1
  Na  Na5745  1  0.56666667  0.60000000  0.70000000  1
  Na  Na5746  1  0.56666667  0.60000000  0.90000000  1
  Na  Na5747  1  0.56666667  0.80000000  0.10000000  1
  Na  Na5748  1  0.56666667  0.80000000  0.30000000  1
  Na  Na5749  1  0.56666667  0.80000000  0.50000000  1
  Na  Na5750  1  0.56666667  0.80000000  0.70000000  1
  Na  Na5751  1  0.56666667  0.80000000  0.90000000  1
  Na  Na5752  1  0.76666667  0.00000000  0.10000000  1
  Na  Na5753  1  0.76666667  0.00000000  0.30000000  1
  Na  Na5754  1  0.76666667  0.00000000  0.50000000  1
  Na  Na5755  1  0.76666667  0.00000000  0.70000000  1
  Na  Na5756  1  0.76666667  0.00000000  0.90000000  1
  Na  Na5757  1  0.76666667  0.20000000  0.10000000  1
  Na  Na5758  1  0.76666667  0.20000000  0.30000000  1
  Na  Na5759  1  0.76666667  0.20000000  0.50000000  1
  Na  Na5760  1  0.76666667  0.20000000  0.70000000  1
  Na  Na5761  1  0.76666667  0.20000000  0.90000000  1
  Na  Na5762  1  0.76666667  0.40000000  0.10000000  1
  Na  Na5763  1  0.76666667  0.40000000  0.30000000  1
  Na  Na5764  1  0.76666667  0.40000000  0.50000000  1
  Na  Na5765  1  0.76666667  0.40000000  0.70000000  1
  Na  Na5766  1  0.76666667  0.40000000  0.90000000  1
  Na  Na5767  1  0.76666667  0.60000000  0.10000000  1
  Na  Na5768  1  0.76666667  0.60000000  0.30000000  1
  Na  Na5769  1  0.76666667  0.60000000  0.50000000  1
  Na  Na5770  1  0.76666667  0.60000000  0.70000000  1
  Na  Na5771  1  0.76666667  0.60000000  0.90000000  1
  Na  Na5772  1  0.76666667  0.80000000  0.10000000  1
  Na  Na5773  1  0.76666667  0.80000000  0.30000000  1
  Na  Na5774  1  0.76666667  0.80000000  0.50000000  1
  Na  Na5775  1  0.76666667  0.80000000  0.70000000  1
  Na  Na5776  1  0.76666667  0.80000000  0.90000000  1
  Na  Na5777  1  0.96666667  0.00000000  0.10000000  1
  Na  Na5778  1  0.96666667  0.00000000  0.30000000  1
  Na  Na5779  1  0.96666667  0.00000000  0.50000000  1
  Na  Na5780  1  0.96666667  0.00000000  0.70000000  1
  Na  Na5781  1  0.96666667  0.00000000  0.90000000  1
  Na  Na5782  1  0.96666667  0.20000000  0.10000000  1
  Na  Na5783  1  0.96666667  0.20000000  0.30000000  1
  Na  Na5784  1  0.96666667  0.20000000  0.50000000  1
  Na  Na5785  1  0.96666667  0.20000000  0.70000000  1
  Na  Na5786  1  0.96666667  0.20000000  0.90000000  1
  Na  Na5787  1  0.96666667  0.40000000  0.10000000  1
  Na  Na5788  1  0.96666667  0.40000000  0.30000000  1
  Na  Na5789  1  0.96666667  0.40000000  0.50000000  1
  Na  Na5790  1  0.96666667  0.40000000  0.70000000  1
  Na  Na5791  1  0.96666667  0.40000000  0.90000000  1
  Na  Na5792  1  0.96666667  0.60000000  0.10000000  1
  Na  Na5793  1  0.96666667  0.60000000  0.50000000  1
  Na  Na5794  1  0.96666667  0.60000000  0.70000000  1
  Na  Na5795  1  0.96666667  0.60000000  0.90000000  1
  Na  Na5796  1  0.96666667  0.80000000  0.10000000  1
  Na  Na5797  1  0.96666667  0.80000000  0.30000000  1
  Na  Na5798  1  0.96666667  0.80000000  0.50000000  1
  Na  Na5799  1  0.96666667  0.80000000  0.70000000  1
  Na  Na5800  1  0.96666667  0.80000000  0.90000000  1
  Na  Na5801  1  0.16666667  0.00000000  0.16666667  1
  Na  Na5802  1  0.16666667  0.00000000  0.36666667  1
  Na  Na5803  1  0.16666667  0.00000000  0.56666667  1
  Na  Na5804  1  0.16666667  0.00000000  0.76666667  1
  Na  Na5805  1  0.16666667  0.00000000  0.96666667  1
  Na  Na5806  1  0.16666667  0.20000000  0.16666667  1
  Na  Na5807  1  0.16666667  0.20000000  0.36666667  1
  Na  Na5808  1  0.16666667  0.20000000  0.56666667  1
  Na  Na5809  1  0.16666667  0.20000000  0.76666667  1
  Na  Na5810  1  0.16666667  0.20000000  0.96666667  1
  Na  Na5811  1  0.16666667  0.40000000  0.16666667  1
  Na  Na5812  1  0.16666667  0.40000000  0.36666667  1
  Na  Na5813  1  0.16666667  0.40000000  0.56666667  1
  Na  Na5814  1  0.16666667  0.40000000  0.96666667  1
  Na  Na5815  1  0.16666667  0.60000000  0.16666667  1
  Na  Na5816  1  0.16666667  0.60000000  0.36666667  1
  Na  Na5817  1  0.16666667  0.60000000  0.56666667  1
  Na  Na5818  1  0.16666667  0.60000000  0.76666667  1
  Na  Na5819  1  0.16666667  0.60000000  0.96666667  1
  Na  Na5820  1  0.16666667  0.80000000  0.16666667  1
  Na  Na5821  1  0.16666667  0.80000000  0.36666667  1
  Na  Na5822  1  0.16666667  0.80000000  0.56666667  1
  Na  Na5823  1  0.16666667  0.80000000  0.76666667  1
  Na  Na5824  1  0.16666667  0.80000000  0.96666667  1
  Na  Na5825  1  0.36666667  0.00000000  0.16666667  1
  Na  Na5826  1  0.36666667  0.00000000  0.36666667  1
  Na  Na5827  1  0.36666667  0.00000000  0.56666667  1
  Na  Na5828  1  0.36666667  0.00000000  0.76666667  1
  Na  Na5829  1  0.36666667  0.00000000  0.96666667  1
  Na  Na5830  1  0.36666667  0.20000000  0.16666667  1
  Na  Na5831  1  0.36666667  0.20000000  0.36666667  1
  Na  Na5832  1  0.36666667  0.20000000  0.56666667  1
  Na  Na5833  1  0.36666667  0.20000000  0.76666667  1
  Na  Na5834  1  0.36666667  0.20000000  0.96666667  1
  Na  Na5835  1  0.36666667  0.40000000  0.16666667  1
  Na  Na5836  1  0.36666667  0.40000000  0.36666667  1
  Na  Na5837  1  0.36666667  0.40000000  0.56666667  1
  Na  Na5838  1  0.36666667  0.40000000  0.76666667  1
  Na  Na5839  1  0.36666667  0.40000000  0.96666667  1
  Na  Na5840  1  0.36666667  0.60000000  0.16666667  1
  Na  Na5841  1  0.36666667  0.60000000  0.36666667  1
  Na  Na5842  1  0.36666667  0.60000000  0.56666667  1
  Na  Na5843  1  0.36666667  0.60000000  0.76666667  1
  Na  Na5844  1  0.36666667  0.60000000  0.96666667  1
  Na  Na5845  1  0.36666667  0.80000000  0.16666667  1
  Na  Na5846  1  0.36666667  0.80000000  0.36666667  1
  Na  Na5847  1  0.36666667  0.80000000  0.56666667  1
  Na  Na5848  1  0.36666667  0.80000000  0.76666667  1
  Na  Na5849  1  0.36666667  0.80000000  0.96666667  1
  Na  Na5850  1  0.56666667  0.00000000  0.16666667  1
  Na  Na5851  1  0.56666667  0.00000000  0.36666667  1
  Na  Na5852  1  0.56666667  0.00000000  0.76666667  1
  Na  Na5853  1  0.56666667  0.00000000  0.96666667  1
  Na  Na5854  1  0.56666667  0.20000000  0.16666667  1
  Na  Na5855  1  0.56666667  0.20000000  0.36666667  1
  Na  Na5856  1  0.56666667  0.20000000  0.56666667  1
  Na  Na5857  1  0.56666667  0.20000000  0.76666667  1
  Na  Na5858  1  0.56666667  0.20000000  0.96666667  1
  Na  Na5859  1  0.56666667  0.40000000  0.16666667  1
  Na  Na5860  1  0.56666667  0.40000000  0.36666667  1
  Na  Na5861  1  0.56666667  0.40000000  0.56666667  1
  Na  Na5862  1  0.56666667  0.40000000  0.76666667  1
  Na  Na5863  1  0.56666667  0.40000000  0.96666667  1
  Na  Na5864  1  0.56666667  0.60000000  0.16666667  1
  Na  Na5865  1  0.56666667  0.60000000  0.36666667  1
  Na  Na5866  1  0.56666667  0.60000000  0.56666667  1
  Na  Na5867  1  0.56666667  0.60000000  0.76666667  1
  Na  Na5868  1  0.56666667  0.60000000  0.96666667  1
  Na  Na5869  1  0.56666667  0.80000000  0.16666667  1
  Na  Na5870  1  0.56666667  0.80000000  0.36666667  1
  Na  Na5871  1  0.56666667  0.80000000  0.56666667  1
  Na  Na5872  1  0.56666667  0.80000000  0.76666667  1
  Na  Na5873  1  0.56666667  0.80000000  0.96666667  1
  Na  Na5874  1  0.76666667  0.00000000  0.16666667  1
  Na  Na5875  1  0.76666667  0.00000000  0.36666667  1
  Na  Na5876  1  0.76666667  0.00000000  0.56666667  1
  Na  Na5877  1  0.76666667  0.00000000  0.76666667  1
  Na  Na5878  1  0.76666667  0.00000000  0.96666667  1
  Na  Na5879  1  0.76666667  0.20000000  0.16666667  1
  Na  Na5880  1  0.76666667  0.20000000  0.36666667  1
  Na  Na5881  1  0.76666667  0.20000000  0.56666667  1
  Na  Na5882  1  0.76666667  0.20000000  0.76666667  1
  Na  Na5883  1  0.76666667  0.20000000  0.96666667  1
  Na  Na5884  1  0.76666667  0.40000000  0.16666667  1
  Na  Na5885  1  0.76666667  0.40000000  0.36666667  1
  Na  Na5886  1  0.76666667  0.40000000  0.56666667  1
  Na  Na5887  1  0.76666667  0.40000000  0.76666667  1
  Na  Na5888  1  0.76666667  0.40000000  0.96666667  1
  Na  Na5889  1  0.76666667  0.60000000  0.16666667  1
  Na  Na5890  1  0.76666667  0.60000000  0.36666667  1
  Na  Na5891  1  0.76666667  0.60000000  0.56666667  1
  Na  Na5892  1  0.76666667  0.60000000  0.76666667  1
  Na  Na5893  1  0.76666667  0.60000000  0.96666667  1
  Na  Na5894  1  0.76666667  0.80000000  0.16666667  1
  Na  Na5895  1  0.76666667  0.80000000  0.36666667  1
  Na  Na5896  1  0.76666667  0.80000000  0.56666667  1
  Na  Na5897  1  0.76666667  0.80000000  0.76666667  1
  Na  Na5898  1  0.76666667  0.80000000  0.96666667  1
  Na  Na5899  1  0.96666667  0.00000000  0.16666667  1
  Na  Na5900  1  0.96666667  0.00000000  0.36666667  1
  Na  Na5901  1  0.96666667  0.00000000  0.56666667  1
  Na  Na5902  1  0.96666667  0.00000000  0.76666667  1
  Na  Na5903  1  0.96666667  0.00000000  0.96666667  1
  Na  Na5904  1  0.96666667  0.20000000  0.16666667  1
  Na  Na5905  1  0.96666667  0.20000000  0.36666667  1
  Na  Na5906  1  0.96666667  0.20000000  0.56666667  1
  Na  Na5907  1  0.96666667  0.20000000  0.76666667  1
  Na  Na5908  1  0.96666667  0.20000000  0.96666667  1
  Na  Na5909  1  0.96666667  0.40000000  0.16666667  1
  Na  Na5910  1  0.96666667  0.40000000  0.36666667  1
  Na  Na5911  1  0.96666667  0.40000000  0.56666667  1
  Na  Na5912  1  0.96666667  0.40000000  0.76666667  1
  Na  Na5913  1  0.96666667  0.40000000  0.96666667  1
  Na  Na5914  1  0.96666667  0.60000000  0.16666667  1
  Na  Na5915  1  0.96666667  0.60000000  0.36666667  1
  Na  Na5916  1  0.96666667  0.60000000  0.56666667  1
  Na  Na5917  1  0.96666667  0.60000000  0.76666667  1
  Na  Na5918  1  0.96666667  0.60000000  0.96666667  1
  Na  Na5919  1  0.96666667  0.80000000  0.16666667  1
  Na  Na5920  1  0.96666667  0.80000000  0.36666667  1
  Na  Na5921  1  0.96666667  0.80000000  0.56666667  1
  Na  Na5922  1  0.96666667  0.80000000  0.76666667  1
  Na  Na5923  1  0.96666667  0.80000000  0.96666667  1
  Na  Na5924  1  0.16666667  0.06666667  0.03333333  1
  Na  Na5925  1  0.16666667  0.06666667  0.23333333  1
  Na  Na5926  1  0.16666667  0.06666667  0.43333333  1
  Na  Na5927  1  0.16666667  0.06666667  0.63333333  1
  Na  Na5928  1  0.16666667  0.06666667  0.83333333  1
  Na  Na5929  1  0.16666667  0.26666667  0.03333333  1
  Na  Na5930  1  0.16666667  0.26666667  0.23333333  1
  Na  Na5931  1  0.16666667  0.26666667  0.43333333  1
  Na  Na5932  1  0.16666667  0.26666667  0.63333333  1
  Na  Na5933  1  0.16666667  0.46666667  0.03333333  1
  Na  Na5934  1  0.16666667  0.46666667  0.23333333  1
  Na  Na5935  1  0.16666667  0.46666667  0.43333333  1
  Na  Na5936  1  0.16666667  0.46666667  0.63333333  1
  Na  Na5937  1  0.16666667  0.66666667  0.03333333  1
  Na  Na5938  1  0.16666667  0.66666667  0.23333333  1
  Na  Na5939  1  0.16666667  0.66666667  0.43333333  1
  Na  Na5940  1  0.16666667  0.66666667  0.63333333  1
  Na  Na5941  1  0.16666667  0.66666667  0.83333333  1
  Na  Na5942  1  0.16666667  0.86666667  0.03333333  1
  Na  Na5943  1  0.16666667  0.86666667  0.23333333  1
  Na  Na5944  1  0.16666667  0.86666667  0.43333333  1
  Na  Na5945  1  0.16666667  0.86666667  0.63333333  1
  Na  Na5946  1  0.16666667  0.86666667  0.83333333  1
  Na  Na5947  1  0.36666667  0.06666667  0.03333333  1
  Na  Na5948  1  0.36666667  0.06666667  0.23333333  1
  Na  Na5949  1  0.36666667  0.06666667  0.43333333  1
  Na  Na5950  1  0.36666667  0.06666667  0.63333333  1
  Na  Na5951  1  0.36666667  0.06666667  0.83333333  1
  Na  Na5952  1  0.36666667  0.26666667  0.03333333  1
  Na  Na5953  1  0.36666667  0.26666667  0.23333333  1
  Na  Na5954  1  0.36666667  0.26666667  0.43333333  1
  Na  Na5955  1  0.36666667  0.26666667  0.63333333  1
  Na  Na5956  1  0.36666667  0.26666667  0.83333333  1
  Na  Na5957  1  0.36666667  0.46666667  0.03333333  1
  Na  Na5958  1  0.36666667  0.46666667  0.23333333  1
  Na  Na5959  1  0.36666667  0.46666667  0.43333333  1
  Na  Na5960  1  0.36666667  0.46666667  0.63333333  1
  Na  Na5961  1  0.36666667  0.46666667  0.83333333  1
  Na  Na5962  1  0.36666667  0.66666667  0.03333333  1
  Na  Na5963  1  0.36666667  0.66666667  0.23333333  1
  Na  Na5964  1  0.36666667  0.66666667  0.43333333  1
  Na  Na5965  1  0.36666667  0.66666667  0.63333333  1
  Na  Na5966  1  0.36666667  0.66666667  0.83333333  1
  Na  Na5967  1  0.36666667  0.86666667  0.03333333  1
  Na  Na5968  1  0.36666667  0.86666667  0.23333333  1
  Na  Na5969  1  0.36666667  0.86666667  0.43333333  1
  Na  Na5970  1  0.36666667  0.86666667  0.63333333  1
  Na  Na5971  1  0.36666667  0.86666667  0.83333333  1
  Na  Na5972  1  0.56666667  0.06666667  0.03333333  1
  Na  Na5973  1  0.56666667  0.06666667  0.23333333  1
  Na  Na5974  1  0.56666667  0.06666667  0.43333333  1
  Na  Na5975  1  0.56666667  0.06666667  0.63333333  1
  Na  Na5976  1  0.56666667  0.06666667  0.83333333  1
  Na  Na5977  1  0.56666667  0.26666667  0.03333333  1
  Na  Na5978  1  0.56666667  0.26666667  0.23333333  1
  Na  Na5979  1  0.56666667  0.26666667  0.43333333  1
  Na  Na5980  1  0.56666667  0.26666667  0.63333333  1
  Na  Na5981  1  0.56666667  0.26666667  0.83333333  1
  Na  Na5982  1  0.56666667  0.46666667  0.03333333  1
  Na  Na5983  1  0.56666667  0.46666667  0.23333333  1
  Na  Na5984  1  0.56666667  0.46666667  0.43333333  1
  Na  Na5985  1  0.56666667  0.46666667  0.63333333  1
  Na  Na5986  1  0.56666667  0.46666667  0.83333333  1
  Na  Na5987  1  0.56666667  0.66666667  0.03333333  1
  Na  Na5988  1  0.56666667  0.66666667  0.23333333  1
  Na  Na5989  1  0.56666667  0.66666667  0.43333333  1
  Na  Na5990  1  0.56666667  0.66666667  0.63333333  1
  Na  Na5991  1  0.56666667  0.66666667  0.83333333  1
  Na  Na5992  1  0.56666667  0.86666667  0.03333333  1
  Na  Na5993  1  0.56666667  0.86666667  0.23333333  1
  Na  Na5994  1  0.56666667  0.86666667  0.43333333  1
  Na  Na5995  1  0.56666667  0.86666667  0.63333333  1
  Na  Na5996  1  0.56666667  0.86666667  0.83333333  1
  Na  Na5997  1  0.76666667  0.06666667  0.03333333  1
  Na  Na5998  1  0.76666667  0.06666667  0.23333333  1
  Na  Na5999  1  0.76666667  0.06666667  0.43333333  1
  Na  Na6000  1  0.76666667  0.06666667  0.63333333  1
  Na  Na6001  1  0.76666667  0.06666667  0.83333333  1
  Na  Na6002  1  0.76666667  0.26666667  0.03333333  1
  Na  Na6003  1  0.76666667  0.26666667  0.23333333  1
  Na  Na6004  1  0.76666667  0.26666667  0.43333333  1
  Na  Na6005  1  0.76666667  0.26666667  0.63333333  1
  Na  Na6006  1  0.76666667  0.26666667  0.83333333  1
  Na  Na6007  1  0.76666667  0.46666667  0.03333333  1
  Na  Na6008  1  0.76666667  0.46666667  0.23333333  1
  Na  Na6009  1  0.76666667  0.46666667  0.43333333  1
  Na  Na6010  1  0.76666667  0.46666667  0.63333333  1
  Na  Na6011  1  0.76666667  0.66666667  0.03333333  1
  Na  Na6012  1  0.76666667  0.66666667  0.23333333  1
  Na  Na6013  1  0.76666667  0.66666667  0.43333333  1
  Na  Na6014  1  0.76666667  0.66666667  0.63333333  1
  Na  Na6015  1  0.76666667  0.66666667  0.83333333  1
  Na  Na6016  1  0.76666667  0.86666667  0.03333333  1
  Na  Na6017  1  0.76666667  0.86666667  0.23333333  1
  Na  Na6018  1  0.76666667  0.86666667  0.43333333  1
  Na  Na6019  1  0.76666667  0.86666667  0.63333333  1
  Na  Na6020  1  0.76666667  0.86666667  0.83333333  1
  Na  Na6021  1  0.96666667  0.06666667  0.03333333  1
  Na  Na6022  1  0.96666667  0.06666667  0.23333333  1
  Na  Na6023  1  0.96666667  0.06666667  0.43333333  1
  Na  Na6024  1  0.96666667  0.06666667  0.63333333  1
  Na  Na6025  1  0.96666667  0.06666667  0.83333333  1
  Na  Na6026  1  0.96666667  0.26666667  0.03333333  1
  Na  Na6027  1  0.96666667  0.26666667  0.23333333  1
  Na  Na6028  1  0.96666667  0.26666667  0.43333333  1
  Na  Na6029  1  0.96666667  0.26666667  0.63333333  1
  Na  Na6030  1  0.96666667  0.26666667  0.83333333  1
  Na  Na6031  1  0.96666667  0.46666667  0.03333333  1
  Na  Na6032  1  0.96666667  0.46666667  0.23333333  1
  Na  Na6033  1  0.96666667  0.46666667  0.43333333  1
  Na  Na6034  1  0.96666667  0.46666667  0.63333333  1
  Na  Na6035  1  0.96666667  0.46666667  0.83333333  1
  Na  Na6036  1  0.96666667  0.66666667  0.03333333  1
  Na  Na6037  1  0.96666667  0.66666667  0.23333333  1
  Na  Na6038  1  0.96666667  0.66666667  0.43333333  1
  Na  Na6039  1  0.96666667  0.66666667  0.63333333  1
  Na  Na6040  1  0.96666667  0.66666667  0.83333333  1
  Na  Na6041  1  0.96666667  0.86666667  0.03333333  1
  Na  Na6042  1  0.96666667  0.86666667  0.23333333  1
  Na  Na6043  1  0.96666667  0.86666667  0.43333333  1
  Na  Na6044  1  0.96666667  0.86666667  0.63333333  1
  Na  Na6045  1  0.96666667  0.86666667  0.83333333  1
  Na  Na6046  1  0.16666667  0.06666667  0.10000000  1
  Na  Na6047  1  0.16666667  0.06666667  0.30000000  1
  Na  Na6048  1  0.16666667  0.06666667  0.50000000  1
  Na  Na6049  1  0.16666667  0.06666667  0.70000000  1
  Na  Na6050  1  0.16666667  0.06666667  0.90000000  1
  Na  Na6051  1  0.16666667  0.26666667  0.10000000  1
  Na  Na6052  1  0.16666667  0.26666667  0.30000000  1
  Na  Na6053  1  0.16666667  0.26666667  0.50000000  1
  Na  Na6054  1  0.16666667  0.26666667  0.70000000  1
  Na  Na6055  1  0.16666667  0.26666667  0.90000000  1
  Na  Na6056  1  0.16666667  0.46666667  0.30000000  1
  Na  Na6057  1  0.16666667  0.46666667  0.50000000  1
  Na  Na6058  1  0.16666667  0.46666667  0.70000000  1
  Na  Na6059  1  0.16666667  0.46666667  0.90000000  1
  Na  Na6060  1  0.16666667  0.66666667  0.10000000  1
  Na  Na6061  1  0.16666667  0.66666667  0.30000000  1
  Na  Na6062  1  0.16666667  0.66666667  0.50000000  1
  Na  Na6063  1  0.16666667  0.66666667  0.70000000  1
  Na  Na6064  1  0.16666667  0.66666667  0.90000000  1
  Na  Na6065  1  0.16666667  0.86666667  0.10000000  1
  Na  Na6066  1  0.16666667  0.86666667  0.30000000  1
  Na  Na6067  1  0.16666667  0.86666667  0.50000000  1
  Na  Na6068  1  0.16666667  0.86666667  0.70000000  1
  Na  Na6069  1  0.16666667  0.86666667  0.90000000  1
  Na  Na6070  1  0.36666667  0.06666667  0.10000000  1
  Na  Na6071  1  0.36666667  0.06666667  0.30000000  1
  Na  Na6072  1  0.36666667  0.06666667  0.50000000  1
  Na  Na6073  1  0.36666667  0.06666667  0.70000000  1
  Na  Na6074  1  0.36666667  0.06666667  0.90000000  1
  Na  Na6075  1  0.36666667  0.26666667  0.10000000  1
  Na  Na6076  1  0.36666667  0.26666667  0.30000000  1
  Na  Na6077  1  0.36666667  0.26666667  0.50000000  1
  Na  Na6078  1  0.36666667  0.26666667  0.70000000  1
  Na  Na6079  1  0.36666667  0.26666667  0.90000000  1
  Na  Na6080  1  0.36666667  0.46666667  0.10000000  1
  Na  Na6081  1  0.36666667  0.46666667  0.30000000  1
  Na  Na6082  1  0.36666667  0.46666667  0.50000000  1
  Na  Na6083  1  0.36666667  0.46666667  0.70000000  1
  Na  Na6084  1  0.36666667  0.46666667  0.90000000  1
  Na  Na6085  1  0.36666667  0.66666667  0.10000000  1
  Na  Na6086  1  0.36666667  0.66666667  0.30000000  1
  Na  Na6087  1  0.36666667  0.66666667  0.50000000  1
  Na  Na6088  1  0.36666667  0.66666667  0.70000000  1
  Na  Na6089  1  0.36666667  0.66666667  0.90000000  1
  Na  Na6090  1  0.36666667  0.86666667  0.10000000  1
  Na  Na6091  1  0.36666667  0.86666667  0.30000000  1
  Na  Na6092  1  0.36666667  0.86666667  0.50000000  1
  Na  Na6093  1  0.36666667  0.86666667  0.70000000  1
  Na  Na6094  1  0.36666667  0.86666667  0.90000000  1
  Na  Na6095  1  0.56666667  0.06666667  0.10000000  1
  Na  Na6096  1  0.56666667  0.06666667  0.30000000  1
  Na  Na6097  1  0.56666667  0.06666667  0.50000000  1
  Na  Na6098  1  0.56666667  0.06666667  0.70000000  1
  Na  Na6099  1  0.56666667  0.06666667  0.90000000  1
  Na  Na6100  1  0.56666667  0.26666667  0.10000000  1
  Na  Na6101  1  0.56666667  0.26666667  0.30000000  1
  Na  Na6102  1  0.56666667  0.26666667  0.50000000  1
  Na  Na6103  1  0.56666667  0.26666667  0.70000000  1
  Na  Na6104  1  0.56666667  0.26666667  0.90000000  1
  Na  Na6105  1  0.56666667  0.46666667  0.10000000  1
  Na  Na6106  1  0.56666667  0.46666667  0.30000000  1
  Na  Na6107  1  0.56666667  0.46666667  0.50000000  1
  Na  Na6108  1  0.56666667  0.46666667  0.70000000  1
  Na  Na6109  1  0.56666667  0.46666667  0.90000000  1
  Na  Na6110  1  0.56666667  0.66666667  0.10000000  1
  Na  Na6111  1  0.56666667  0.66666667  0.30000000  1
  Na  Na6112  1  0.56666667  0.66666667  0.50000000  1
  Na  Na6113  1  0.56666667  0.66666667  0.70000000  1
  Na  Na6114  1  0.56666667  0.66666667  0.90000000  1
  Na  Na6115  1  0.56666667  0.86666667  0.10000000  1
  Na  Na6116  1  0.56666667  0.86666667  0.30000000  1
  Na  Na6117  1  0.56666667  0.86666667  0.50000000  1
  Na  Na6118  1  0.56666667  0.86666667  0.70000000  1
  Na  Na6119  1  0.56666667  0.86666667  0.90000000  1
  Na  Na6120  1  0.76666667  0.06666667  0.10000000  1
  Na  Na6121  1  0.76666667  0.06666667  0.30000000  1
  Na  Na6122  1  0.76666667  0.06666667  0.50000000  1
  Na  Na6123  1  0.76666667  0.06666667  0.70000000  1
  Na  Na6124  1  0.76666667  0.06666667  0.90000000  1
  Na  Na6125  1  0.76666667  0.26666667  0.10000000  1
  Na  Na6126  1  0.76666667  0.26666667  0.30000000  1
  Na  Na6127  1  0.76666667  0.26666667  0.50000000  1
  Na  Na6128  1  0.76666667  0.26666667  0.70000000  1
  Na  Na6129  1  0.76666667  0.26666667  0.90000000  1
  Na  Na6130  1  0.76666667  0.46666667  0.10000000  1
  Na  Na6131  1  0.76666667  0.46666667  0.30000000  1
  Na  Na6132  1  0.76666667  0.46666667  0.50000000  1
  Na  Na6133  1  0.76666667  0.46666667  0.70000000  1
  Na  Na6134  1  0.76666667  0.46666667  0.90000000  1
  Na  Na6135  1  0.76666667  0.66666667  0.10000000  1
  Na  Na6136  1  0.76666667  0.66666667  0.30000000  1
  Na  Na6137  1  0.76666667  0.66666667  0.50000000  1
  Na  Na6138  1  0.76666667  0.66666667  0.70000000  1
  Na  Na6139  1  0.76666667  0.66666667  0.90000000  1
  Na  Na6140  1  0.76666667  0.86666667  0.10000000  1
  Na  Na6141  1  0.76666667  0.86666667  0.30000000  1
  Na  Na6142  1  0.76666667  0.86666667  0.50000000  1
  Na  Na6143  1  0.76666667  0.86666667  0.70000000  1
  Na  Na6144  1  0.76666667  0.86666667  0.90000000  1
  Na  Na6145  1  0.96666667  0.06666667  0.10000000  1
  Na  Na6146  1  0.96666667  0.06666667  0.30000000  1
  Na  Na6147  1  0.96666667  0.06666667  0.50000000  1
  Na  Na6148  1  0.96666667  0.06666667  0.70000000  1
  Na  Na6149  1  0.96666667  0.06666667  0.90000000  1
  Na  Na6150  1  0.96666667  0.26666667  0.10000000  1
  Na  Na6151  1  0.96666667  0.26666667  0.30000000  1
  Na  Na6152  1  0.96666667  0.26666667  0.50000000  1
  Na  Na6153  1  0.96666667  0.26666667  0.70000000  1
  Na  Na6154  1  0.96666667  0.26666667  0.90000000  1
  Na  Na6155  1  0.96666667  0.46666667  0.10000000  1
  Na  Na6156  1  0.96666667  0.46666667  0.30000000  1
  Na  Na6157  1  0.96666667  0.46666667  0.50000000  1
  Na  Na6158  1  0.96666667  0.46666667  0.70000000  1
  Na  Na6159  1  0.96666667  0.46666667  0.90000000  1
  Na  Na6160  1  0.96666667  0.66666667  0.10000000  1
  Na  Na6161  1  0.96666667  0.66666667  0.30000000  1
  Na  Na6162  1  0.96666667  0.66666667  0.50000000  1
  Na  Na6163  1  0.96666667  0.66666667  0.70000000  1
  Na  Na6164  1  0.96666667  0.66666667  0.90000000  1
  Na  Na6165  1  0.96666667  0.86666667  0.10000000  1
  Na  Na6166  1  0.96666667  0.86666667  0.30000000  1
  Na  Na6167  1  0.96666667  0.86666667  0.50000000  1
  Na  Na6168  1  0.96666667  0.86666667  0.70000000  1
  Na  Na6169  1  0.96666667  0.86666667  0.90000000  1
  Na  Na6170  1  0.16666667  0.06666667  0.16666667  1
  Na  Na6171  1  0.16666667  0.06666667  0.36666667  1
  Na  Na6172  1  0.16666667  0.06666667  0.56666667  1
  Na  Na6173  1  0.16666667  0.06666667  0.76666667  1
  Na  Na6174  1  0.16666667  0.06666667  0.96666667  1
  Na  Na6175  1  0.16666667  0.26666667  0.16666667  1
  Na  Na6176  1  0.16666667  0.26666667  0.36666667  1
  Na  Na6177  1  0.16666667  0.26666667  0.56666667  1
  Na  Na6178  1  0.16666667  0.26666667  0.76666667  1
  Na  Na6179  1  0.16666667  0.26666667  0.96666667  1
  Na  Na6180  1  0.16666667  0.46666667  0.16666667  1
  Na  Na6181  1  0.16666667  0.46666667  0.36666667  1
  Na  Na6182  1  0.16666667  0.46666667  0.56666667  1
  Na  Na6183  1  0.16666667  0.46666667  0.76666667  1
  Na  Na6184  1  0.16666667  0.46666667  0.96666667  1
  Na  Na6185  1  0.16666667  0.66666667  0.16666667  1
  Na  Na6186  1  0.16666667  0.66666667  0.36666667  1
  Na  Na6187  1  0.16666667  0.66666667  0.56666667  1
  Na  Na6188  1  0.16666667  0.66666667  0.76666667  1
  Na  Na6189  1  0.16666667  0.66666667  0.96666667  1
  Na  Na6190  1  0.16666667  0.86666667  0.16666667  1
  Na  Na6191  1  0.16666667  0.86666667  0.36666667  1
  Na  Na6192  1  0.16666667  0.86666667  0.56666667  1
  Na  Na6193  1  0.16666667  0.86666667  0.76666667  1
  Na  Na6194  1  0.16666667  0.86666667  0.96666667  1
  Na  Na6195  1  0.36666667  0.06666667  0.16666667  1
  Na  Na6196  1  0.36666667  0.06666667  0.36666667  1
  Na  Na6197  1  0.36666667  0.06666667  0.56666667  1
  Na  Na6198  1  0.36666667  0.06666667  0.76666667  1
  Na  Na6199  1  0.36666667  0.06666667  0.96666667  1
  Na  Na6200  1  0.36666667  0.26666667  0.16666667  1
  Na  Na6201  1  0.36666667  0.26666667  0.36666667  1
  Na  Na6202  1  0.36666667  0.26666667  0.56666667  1
  Na  Na6203  1  0.36666667  0.26666667  0.76666667  1
  Na  Na6204  1  0.36666667  0.46666667  0.16666667  1
  Na  Na6205  1  0.36666667  0.46666667  0.36666667  1
  Na  Na6206  1  0.36666667  0.46666667  0.56666667  1
  Na  Na6207  1  0.36666667  0.46666667  0.76666667  1
  Na  Na6208  1  0.36666667  0.46666667  0.96666667  1
  Na  Na6209  1  0.36666667  0.66666667  0.16666667  1
  Na  Na6210  1  0.36666667  0.66666667  0.36666667  1
  Na  Na6211  1  0.36666667  0.66666667  0.56666667  1
  Na  Na6212  1  0.36666667  0.66666667  0.76666667  1
  Na  Na6213  1  0.36666667  0.66666667  0.96666667  1
  Na  Na6214  1  0.36666667  0.86666667  0.16666667  1
  Na  Na6215  1  0.36666667  0.86666667  0.36666667  1
  Na  Na6216  1  0.36666667  0.86666667  0.56666667  1
  Na  Na6217  1  0.36666667  0.86666667  0.76666667  1
  Na  Na6218  1  0.36666667  0.86666667  0.96666667  1
  Na  Na6219  1  0.56666667  0.06666667  0.16666667  1
  Na  Na6220  1  0.56666667  0.06666667  0.36666667  1
  Na  Na6221  1  0.56666667  0.06666667  0.56666667  1
  Na  Na6222  1  0.56666667  0.06666667  0.76666667  1
  Na  Na6223  1  0.56666667  0.06666667  0.96666667  1
  Na  Na6224  1  0.56666667  0.26666667  0.16666667  1
  Na  Na6225  1  0.56666667  0.26666667  0.36666667  1
  Na  Na6226  1  0.56666667  0.26666667  0.56666667  1
  Na  Na6227  1  0.56666667  0.26666667  0.76666667  1
  Na  Na6228  1  0.56666667  0.26666667  0.96666667  1
  Na  Na6229  1  0.56666667  0.46666667  0.16666667  1
  Na  Na6230  1  0.56666667  0.46666667  0.36666667  1
  Na  Na6231  1  0.56666667  0.46666667  0.56666667  1
  Na  Na6232  1  0.56666667  0.46666667  0.76666667  1
  Na  Na6233  1  0.56666667  0.46666667  0.96666667  1
  Na  Na6234  1  0.56666667  0.66666667  0.16666667  1
  Na  Na6235  1  0.56666667  0.66666667  0.36666667  1
  Na  Na6236  1  0.56666667  0.66666667  0.56666667  1
  Na  Na6237  1  0.56666667  0.66666667  0.76666667  1
  Na  Na6238  1  0.56666667  0.66666667  0.96666667  1
  Na  Na6239  1  0.56666667  0.86666667  0.16666667  1
  Na  Na6240  1  0.56666667  0.86666667  0.36666667  1
  Na  Na6241  1  0.56666667  0.86666667  0.56666667  1
  Na  Na6242  1  0.56666667  0.86666667  0.76666667  1
  Na  Na6243  1  0.56666667  0.86666667  0.96666667  1
  Na  Na6244  1  0.76666667  0.06666667  0.16666667  1
  Na  Na6245  1  0.76666667  0.06666667  0.36666667  1
  Na  Na6246  1  0.76666667  0.06666667  0.56666667  1
  Na  Na6247  1  0.76666667  0.06666667  0.76666667  1
  Na  Na6248  1  0.76666667  0.06666667  0.96666667  1
  Na  Na6249  1  0.76666667  0.26666667  0.16666667  1
  Na  Na6250  1  0.76666667  0.26666667  0.36666667  1
  Na  Na6251  1  0.76666667  0.26666667  0.56666667  1
  Na  Na6252  1  0.76666667  0.26666667  0.76666667  1
  Na  Na6253  1  0.76666667  0.26666667  0.96666667  1
  Na  Na6254  1  0.76666667  0.46666667  0.16666667  1
  Na  Na6255  1  0.76666667  0.46666667  0.36666667  1
  Na  Na6256  1  0.76666667  0.46666667  0.56666667  1
  Na  Na6257  1  0.76666667  0.46666667  0.76666667  1
  Na  Na6258  1  0.76666667  0.46666667  0.96666667  1
  Na  Na6259  1  0.76666667  0.66666667  0.16666667  1
  Na  Na6260  1  0.76666667  0.66666667  0.36666667  1
  Na  Na6261  1  0.76666667  0.66666667  0.56666667  1
  Na  Na6262  1  0.76666667  0.66666667  0.76666667  1
  Na  Na6263  1  0.76666667  0.66666667  0.96666667  1
  Na  Na6264  1  0.76666667  0.86666667  0.16666667  1
  Na  Na6265  1  0.76666667  0.86666667  0.36666667  1
  Na  Na6266  1  0.76666667  0.86666667  0.56666667  1
  Na  Na6267  1  0.76666667  0.86666667  0.76666667  1
  Na  Na6268  1  0.76666667  0.86666667  0.96666667  1
  Na  Na6269  1  0.96666667  0.06666667  0.16666667  1
  Na  Na6270  1  0.96666667  0.06666667  0.36666667  1
  Na  Na6271  1  0.96666667  0.06666667  0.56666667  1
  Na  Na6272  1  0.96666667  0.06666667  0.76666667  1
  Na  Na6273  1  0.96666667  0.06666667  0.96666667  1
  Na  Na6274  1  0.96666667  0.26666667  0.16666667  1
  Na  Na6275  1  0.96666667  0.26666667  0.36666667  1
  Na  Na6276  1  0.96666667  0.26666667  0.56666667  1
  Na  Na6277  1  0.96666667  0.26666667  0.76666667  1
  Na  Na6278  1  0.96666667  0.26666667  0.96666667  1
  Na  Na6279  1  0.96666667  0.46666667  0.16666667  1
  Na  Na6280  1  0.96666667  0.46666667  0.36666667  1
  Na  Na6281  1  0.96666667  0.46666667  0.56666667  1
  Na  Na6282  1  0.96666667  0.46666667  0.76666667  1
  Na  Na6283  1  0.96666667  0.46666667  0.96666667  1
  Na  Na6284  1  0.96666667  0.66666667  0.16666667  1
  Na  Na6285  1  0.96666667  0.66666667  0.36666667  1
  Na  Na6286  1  0.96666667  0.66666667  0.56666667  1
  Na  Na6287  1  0.96666667  0.66666667  0.76666667  1
  Na  Na6288  1  0.96666667  0.66666667  0.96666667  1
  Na  Na6289  1  0.96666667  0.86666667  0.16666667  1
  Na  Na6290  1  0.96666667  0.86666667  0.36666667  1
  Na  Na6291  1  0.96666667  0.86666667  0.56666667  1
  Na  Na6292  1  0.96666667  0.86666667  0.76666667  1
  Na  Na6293  1  0.96666667  0.86666667  0.96666667  1
  Na  Na6294  1  0.16666667  0.13333333  0.03333333  1
  Na  Na6295  1  0.16666667  0.13333333  0.23333333  1
  Na  Na6296  1  0.16666667  0.13333333  0.43333333  1
  Na  Na6297  1  0.16666667  0.13333333  0.63333333  1
  Na  Na6298  1  0.16666667  0.13333333  0.83333333  1
  Na  Na6299  1  0.16666667  0.33333333  0.03333333  1
  Na  Na6300  1  0.16666667  0.33333333  0.23333333  1
  Na  Na6301  1  0.16666667  0.33333333  0.63333333  1
  Na  Na6302  1  0.16666667  0.33333333  0.83333333  1
  Na  Na6303  1  0.16666667  0.53333333  0.03333333  1
  Na  Na6304  1  0.16666667  0.53333333  0.23333333  1
  Na  Na6305  1  0.16666667  0.53333333  0.43333333  1
  Na  Na6306  1  0.16666667  0.53333333  0.63333333  1
  Na  Na6307  1  0.16666667  0.53333333  0.83333333  1
  Na  Na6308  1  0.16666667  0.73333333  0.03333333  1
  Na  Na6309  1  0.16666667  0.73333333  0.23333333  1
  Na  Na6310  1  0.16666667  0.73333333  0.43333333  1
  Na  Na6311  1  0.16666667  0.73333333  0.63333333  1
  Na  Na6312  1  0.16666667  0.73333333  0.83333333  1
  Na  Na6313  1  0.16666667  0.93333333  0.03333333  1
  Na  Na6314  1  0.16666667  0.93333333  0.23333333  1
  Na  Na6315  1  0.16666667  0.93333333  0.43333333  1
  Na  Na6316  1  0.16666667  0.93333333  0.63333333  1
  Na  Na6317  1  0.16666667  0.93333333  0.83333333  1
  Na  Na6318  1  0.36666667  0.13333333  0.03333333  1
  Na  Na6319  1  0.36666667  0.13333333  0.23333333  1
  Na  Na6320  1  0.36666667  0.13333333  0.43333333  1
  Na  Na6321  1  0.36666667  0.13333333  0.63333333  1
  Na  Na6322  1  0.36666667  0.13333333  0.83333333  1
  Na  Na6323  1  0.36666667  0.33333333  0.03333333  1
  Na  Na6324  1  0.36666667  0.33333333  0.23333333  1
  Na  Na6325  1  0.36666667  0.33333333  0.43333333  1
  Na  Na6326  1  0.36666667  0.33333333  0.63333333  1
  Na  Na6327  1  0.36666667  0.33333333  0.83333333  1
  Na  Na6328  1  0.36666667  0.53333333  0.03333333  1
  Na  Na6329  1  0.36666667  0.53333333  0.23333333  1
  Na  Na6330  1  0.36666667  0.53333333  0.43333333  1
  Na  Na6331  1  0.36666667  0.53333333  0.63333333  1
  Na  Na6332  1  0.36666667  0.53333333  0.83333333  1
  Na  Na6333  1  0.36666667  0.73333333  0.03333333  1
  Na  Na6334  1  0.36666667  0.73333333  0.23333333  1
  Na  Na6335  1  0.36666667  0.73333333  0.43333333  1
  Na  Na6336  1  0.36666667  0.73333333  0.63333333  1
  Na  Na6337  1  0.36666667  0.73333333  0.83333333  1
  Na  Na6338  1  0.36666667  0.93333333  0.03333333  1
  Na  Na6339  1  0.36666667  0.93333333  0.23333333  1
  Na  Na6340  1  0.36666667  0.93333333  0.43333333  1
  Na  Na6341  1  0.36666667  0.93333333  0.63333333  1
  Na  Na6342  1  0.36666667  0.93333333  0.83333333  1
  Na  Na6343  1  0.56666667  0.13333333  0.03333333  1
  Na  Na6344  1  0.56666667  0.13333333  0.23333333  1
  Na  Na6345  1  0.56666667  0.13333333  0.43333333  1
  Na  Na6346  1  0.56666667  0.13333333  0.63333333  1
  Na  Na6347  1  0.56666667  0.13333333  0.83333333  1
  Na  Na6348  1  0.56666667  0.33333333  0.03333333  1
  Na  Na6349  1  0.56666667  0.33333333  0.23333333  1
  Na  Na6350  1  0.56666667  0.33333333  0.43333333  1
  Na  Na6351  1  0.56666667  0.33333333  0.63333333  1
  Na  Na6352  1  0.56666667  0.33333333  0.83333333  1
  Na  Na6353  1  0.56666667  0.53333333  0.03333333  1
  Na  Na6354  1  0.56666667  0.53333333  0.23333333  1
  Na  Na6355  1  0.56666667  0.53333333  0.43333333  1
  Na  Na6356  1  0.56666667  0.53333333  0.63333333  1
  Na  Na6357  1  0.56666667  0.53333333  0.83333333  1
  Na  Na6358  1  0.56666667  0.73333333  0.03333333  1
  Na  Na6359  1  0.56666667  0.73333333  0.23333333  1
  Na  Na6360  1  0.56666667  0.73333333  0.43333333  1
  Na  Na6361  1  0.56666667  0.73333333  0.63333333  1
  Na  Na6362  1  0.56666667  0.73333333  0.83333333  1
  Na  Na6363  1  0.56666667  0.93333333  0.03333333  1
  Na  Na6364  1  0.56666667  0.93333333  0.23333333  1
  Na  Na6365  1  0.56666667  0.93333333  0.43333333  1
  Na  Na6366  1  0.56666667  0.93333333  0.63333333  1
  Na  Na6367  1  0.56666667  0.93333333  0.83333333  1
  Na  Na6368  1  0.76666667  0.13333333  0.03333333  1
  Na  Na6369  1  0.76666667  0.13333333  0.23333333  1
  Na  Na6370  1  0.76666667  0.13333333  0.43333333  1
  Na  Na6371  1  0.76666667  0.13333333  0.63333333  1
  Na  Na6372  1  0.76666667  0.13333333  0.83333333  1
  Na  Na6373  1  0.76666667  0.33333333  0.03333333  1
  Na  Na6374  1  0.76666667  0.33333333  0.23333333  1
  Na  Na6375  1  0.76666667  0.33333333  0.43333333  1
  Na  Na6376  1  0.76666667  0.33333333  0.63333333  1
  Na  Na6377  1  0.76666667  0.33333333  0.83333333  1
  Na  Na6378  1  0.76666667  0.53333333  0.03333333  1
  Na  Na6379  1  0.76666667  0.53333333  0.23333333  1
  Na  Na6380  1  0.76666667  0.53333333  0.43333333  1
  Na  Na6381  1  0.76666667  0.53333333  0.63333333  1
  Na  Na6382  1  0.76666667  0.53333333  0.83333333  1
  Na  Na6383  1  0.76666667  0.73333333  0.03333333  1
  Na  Na6384  1  0.76666667  0.73333333  0.23333333  1
  Na  Na6385  1  0.76666667  0.73333333  0.43333333  1
  Na  Na6386  1  0.76666667  0.73333333  0.63333333  1
  Na  Na6387  1  0.76666667  0.73333333  0.83333333  1
  Na  Na6388  1  0.76666667  0.93333333  0.03333333  1
  Na  Na6389  1  0.76666667  0.93333333  0.23333333  1
  Na  Na6390  1  0.76666667  0.93333333  0.43333333  1
  Na  Na6391  1  0.76666667  0.93333333  0.63333333  1
  Na  Na6392  1  0.96666667  0.13333333  0.23333333  1
  Na  Na6393  1  0.96666667  0.13333333  0.43333333  1
  Na  Na6394  1  0.96666667  0.13333333  0.63333333  1
  Na  Na6395  1  0.96666667  0.13333333  0.83333333  1
  Na  Na6396  1  0.96666667  0.33333333  0.03333333  1
  Na  Na6397  1  0.96666667  0.33333333  0.23333333  1
  Na  Na6398  1  0.96666667  0.33333333  0.43333333  1
  Na  Na6399  1  0.96666667  0.33333333  0.63333333  1
  Na  Na6400  1  0.96666667  0.33333333  0.83333333  1
  Na  Na6401  1  0.96666667  0.53333333  0.03333333  1
  Na  Na6402  1  0.96666667  0.53333333  0.23333333  1
  Na  Na6403  1  0.96666667  0.53333333  0.43333333  1
  Na  Na6404  1  0.96666667  0.53333333  0.63333333  1
  Na  Na6405  1  0.96666667  0.53333333  0.83333333  1
  Na  Na6406  1  0.96666667  0.73333333  0.03333333  1
  Na  Na6407  1  0.96666667  0.73333333  0.23333333  1
  Na  Na6408  1  0.96666667  0.73333333  0.43333333  1
  Na  Na6409  1  0.96666667  0.73333333  0.63333333  1
  Na  Na6410  1  0.96666667  0.73333333  0.83333333  1
  Na  Na6411  1  0.96666667  0.93333333  0.03333333  1
  Na  Na6412  1  0.96666667  0.93333333  0.23333333  1
  Na  Na6413  1  0.96666667  0.93333333  0.43333333  1
  Na  Na6414  1  0.96666667  0.93333333  0.63333333  1
  Na  Na6415  1  0.96666667  0.93333333  0.83333333  1
  Na  Na6416  1  0.16666667  0.13333333  0.10000000  1
  Na  Na6417  1  0.16666667  0.13333333  0.30000000  1
  Na  Na6418  1  0.16666667  0.13333333  0.50000000  1
  Na  Na6419  1  0.16666667  0.13333333  0.70000000  1
  Na  Na6420  1  0.16666667  0.13333333  0.90000000  1
  Na  Na6421  1  0.16666667  0.33333333  0.10000000  1
  Na  Na6422  1  0.16666667  0.33333333  0.30000000  1
  Na  Na6423  1  0.16666667  0.33333333  0.50000000  1
  Na  Na6424  1  0.16666667  0.33333333  0.70000000  1
  Na  Na6425  1  0.16666667  0.53333333  0.10000000  1
  Na  Na6426  1  0.16666667  0.53333333  0.30000000  1
  Na  Na6427  1  0.16666667  0.53333333  0.50000000  1
  Na  Na6428  1  0.16666667  0.53333333  0.70000000  1
  Na  Na6429  1  0.16666667  0.53333333  0.90000000  1
  Na  Na6430  1  0.16666667  0.73333333  0.10000000  1
  Na  Na6431  1  0.16666667  0.73333333  0.30000000  1
  Na  Na6432  1  0.16666667  0.73333333  0.50000000  1
  Na  Na6433  1  0.16666667  0.73333333  0.70000000  1
  Na  Na6434  1  0.16666667  0.73333333  0.90000000  1
  Na  Na6435  1  0.16666667  0.93333333  0.10000000  1
  Na  Na6436  1  0.16666667  0.93333333  0.30000000  1
  Na  Na6437  1  0.16666667  0.93333333  0.50000000  1
  Na  Na6438  1  0.16666667  0.93333333  0.70000000  1
  Na  Na6439  1  0.16666667  0.93333333  0.90000000  1
  Na  Na6440  1  0.36666667  0.13333333  0.10000000  1
  Na  Na6441  1  0.36666667  0.13333333  0.30000000  1
  Na  Na6442  1  0.36666667  0.13333333  0.50000000  1
  Na  Na6443  1  0.36666667  0.13333333  0.70000000  1
  Na  Na6444  1  0.36666667  0.13333333  0.90000000  1
  Na  Na6445  1  0.36666667  0.33333333  0.10000000  1
  Na  Na6446  1  0.36666667  0.33333333  0.30000000  1
  Na  Na6447  1  0.36666667  0.33333333  0.50000000  1
  Na  Na6448  1  0.36666667  0.33333333  0.70000000  1
  Na  Na6449  1  0.36666667  0.33333333  0.90000000  1
  Na  Na6450  1  0.36666667  0.53333333  0.10000000  1
  Na  Na6451  1  0.36666667  0.53333333  0.30000000  1
  Na  Na6452  1  0.36666667  0.53333333  0.50000000  1
  Na  Na6453  1  0.36666667  0.53333333  0.70000000  1
  Na  Na6454  1  0.36666667  0.53333333  0.90000000  1
  Na  Na6455  1  0.36666667  0.73333333  0.10000000  1
  Na  Na6456  1  0.36666667  0.73333333  0.30000000  1
  Na  Na6457  1  0.36666667  0.73333333  0.50000000  1
  Na  Na6458  1  0.36666667  0.73333333  0.70000000  1
  Na  Na6459  1  0.36666667  0.73333333  0.90000000  1
  Na  Na6460  1  0.36666667  0.93333333  0.10000000  1
  Na  Na6461  1  0.36666667  0.93333333  0.30000000  1
  Na  Na6462  1  0.36666667  0.93333333  0.50000000  1
  Na  Na6463  1  0.36666667  0.93333333  0.70000000  1
  Na  Na6464  1  0.36666667  0.93333333  0.90000000  1
  Na  Na6465  1  0.56666667  0.13333333  0.10000000  1
  Na  Na6466  1  0.56666667  0.13333333  0.30000000  1
  Na  Na6467  1  0.56666667  0.13333333  0.50000000  1
  Na  Na6468  1  0.56666667  0.13333333  0.70000000  1
  Na  Na6469  1  0.56666667  0.13333333  0.90000000  1
  Na  Na6470  1  0.56666667  0.33333333  0.10000000  1
  Na  Na6471  1  0.56666667  0.33333333  0.30000000  1
  Na  Na6472  1  0.56666667  0.33333333  0.50000000  1
  Na  Na6473  1  0.56666667  0.33333333  0.70000000  1
  Na  Na6474  1  0.56666667  0.33333333  0.90000000  1
  Na  Na6475  1  0.56666667  0.53333333  0.10000000  1
  Na  Na6476  1  0.56666667  0.53333333  0.30000000  1
  Na  Na6477  1  0.56666667  0.53333333  0.50000000  1
  Na  Na6478  1  0.56666667  0.53333333  0.70000000  1
  Na  Na6479  1  0.56666667  0.53333333  0.90000000  1
  Na  Na6480  1  0.56666667  0.73333333  0.10000000  1
  Na  Na6481  1  0.56666667  0.73333333  0.30000000  1
  Na  Na6482  1  0.56666667  0.73333333  0.50000000  1
  Na  Na6483  1  0.56666667  0.73333333  0.70000000  1
  Na  Na6484  1  0.56666667  0.73333333  0.90000000  1
  Na  Na6485  1  0.56666667  0.93333333  0.10000000  1
  Na  Na6486  1  0.56666667  0.93333333  0.30000000  1
  Na  Na6487  1  0.56666667  0.93333333  0.50000000  1
  Na  Na6488  1  0.56666667  0.93333333  0.70000000  1
  Na  Na6489  1  0.56666667  0.93333333  0.90000000  1
  Na  Na6490  1  0.76666667  0.13333333  0.10000000  1
  Na  Na6491  1  0.76666667  0.13333333  0.30000000  1
  Na  Na6492  1  0.76666667  0.13333333  0.50000000  1
  Na  Na6493  1  0.76666667  0.13333333  0.70000000  1
  Na  Na6494  1  0.76666667  0.13333333  0.90000000  1
  Na  Na6495  1  0.76666667  0.33333333  0.10000000  1
  Na  Na6496  1  0.76666667  0.33333333  0.30000000  1
  Na  Na6497  1  0.76666667  0.33333333  0.50000000  1
  Na  Na6498  1  0.76666667  0.33333333  0.70000000  1
  Na  Na6499  1  0.76666667  0.33333333  0.90000000  1
  Na  Na6500  1  0.76666667  0.53333333  0.10000000  1
  Na  Na6501  1  0.76666667  0.53333333  0.30000000  1
  Na  Na6502  1  0.76666667  0.53333333  0.50000000  1
  Na  Na6503  1  0.76666667  0.53333333  0.70000000  1
  Na  Na6504  1  0.76666667  0.53333333  0.90000000  1
  Na  Na6505  1  0.76666667  0.73333333  0.10000000  1
  Na  Na6506  1  0.76666667  0.73333333  0.30000000  1
  Na  Na6507  1  0.76666667  0.73333333  0.50000000  1
  Na  Na6508  1  0.76666667  0.73333333  0.70000000  1
  Na  Na6509  1  0.76666667  0.73333333  0.90000000  1
  Na  Na6510  1  0.76666667  0.93333333  0.10000000  1
  Na  Na6511  1  0.76666667  0.93333333  0.30000000  1
  Na  Na6512  1  0.76666667  0.93333333  0.50000000  1
  Na  Na6513  1  0.76666667  0.93333333  0.70000000  1
  Na  Na6514  1  0.76666667  0.93333333  0.90000000  1
  Na  Na6515  1  0.96666667  0.13333333  0.10000000  1
  Na  Na6516  1  0.96666667  0.13333333  0.30000000  1
  Na  Na6517  1  0.96666667  0.13333333  0.50000000  1
  Na  Na6518  1  0.96666667  0.13333333  0.70000000  1
  Na  Na6519  1  0.96666667  0.13333333  0.90000000  1
  Na  Na6520  1  0.96666667  0.33333333  0.10000000  1
  Na  Na6521  1  0.96666667  0.33333333  0.30000000  1
  Na  Na6522  1  0.96666667  0.33333333  0.50000000  1
  Na  Na6523  1  0.96666667  0.33333333  0.70000000  1
  Na  Na6524  1  0.96666667  0.33333333  0.90000000  1
  Na  Na6525  1  0.96666667  0.53333333  0.10000000  1
  Na  Na6526  1  0.96666667  0.53333333  0.30000000  1
  Na  Na6527  1  0.96666667  0.53333333  0.50000000  1
  Na  Na6528  1  0.96666667  0.53333333  0.70000000  1
  Na  Na6529  1  0.96666667  0.53333333  0.90000000  1
  Na  Na6530  1  0.96666667  0.73333333  0.10000000  1
  Na  Na6531  1  0.96666667  0.73333333  0.30000000  1
  Na  Na6532  1  0.96666667  0.73333333  0.50000000  1
  Na  Na6533  1  0.96666667  0.73333333  0.70000000  1
  Na  Na6534  1  0.96666667  0.73333333  0.90000000  1
  Na  Na6535  1  0.96666667  0.93333333  0.10000000  1
  Na  Na6536  1  0.96666667  0.93333333  0.30000000  1
  Na  Na6537  1  0.96666667  0.93333333  0.50000000  1
  Na  Na6538  1  0.96666667  0.93333333  0.70000000  1
  Na  Na6539  1  0.96666667  0.93333333  0.90000000  1
  Na  Na6540  1  0.16666667  0.13333333  0.16666667  1
  Na  Na6541  1  0.16666667  0.13333333  0.36666667  1
  Na  Na6542  1  0.16666667  0.13333333  0.56666667  1
  Na  Na6543  1  0.16666667  0.13333333  0.76666667  1
  Na  Na6544  1  0.16666667  0.13333333  0.96666667  1
  Na  Na6545  1  0.16666667  0.33333333  0.16666667  1
  Na  Na6546  1  0.16666667  0.33333333  0.36666667  1
  Na  Na6547  1  0.16666667  0.33333333  0.56666667  1
  Na  Na6548  1  0.16666667  0.33333333  0.76666667  1
  Na  Na6549  1  0.16666667  0.33333333  0.96666667  1
  Na  Na6550  1  0.16666667  0.53333333  0.16666667  1
  Na  Na6551  1  0.16666667  0.53333333  0.36666667  1
  Na  Na6552  1  0.16666667  0.53333333  0.56666667  1
  Na  Na6553  1  0.16666667  0.53333333  0.76666667  1
  Na  Na6554  1  0.16666667  0.53333333  0.96666667  1
  Na  Na6555  1  0.16666667  0.73333333  0.16666667  1
  Na  Na6556  1  0.16666667  0.73333333  0.36666667  1
  Na  Na6557  1  0.16666667  0.73333333  0.56666667  1
  Na  Na6558  1  0.16666667  0.73333333  0.76666667  1
  Na  Na6559  1  0.16666667  0.73333333  0.96666667  1
  Na  Na6560  1  0.16666667  0.93333333  0.16666667  1
  Na  Na6561  1  0.16666667  0.93333333  0.36666667  1
  Na  Na6562  1  0.16666667  0.93333333  0.56666667  1
  Na  Na6563  1  0.16666667  0.93333333  0.76666667  1
  Na  Na6564  1  0.16666667  0.93333333  0.96666667  1
  Na  Na6565  1  0.36666667  0.13333333  0.16666667  1
  Na  Na6566  1  0.36666667  0.13333333  0.36666667  1
  Na  Na6567  1  0.36666667  0.13333333  0.56666667  1
  Na  Na6568  1  0.36666667  0.13333333  0.76666667  1
  Na  Na6569  1  0.36666667  0.13333333  0.96666667  1
  Na  Na6570  1  0.36666667  0.33333333  0.16666667  1
  Na  Na6571  1  0.36666667  0.33333333  0.36666667  1
  Na  Na6572  1  0.36666667  0.33333333  0.56666667  1
  Na  Na6573  1  0.36666667  0.33333333  0.76666667  1
  Na  Na6574  1  0.36666667  0.33333333  0.96666667  1
  Na  Na6575  1  0.36666667  0.53333333  0.16666667  1
  Na  Na6576  1  0.36666667  0.53333333  0.36666667  1
  Na  Na6577  1  0.36666667  0.53333333  0.56666667  1
  Na  Na6578  1  0.36666667  0.53333333  0.76666667  1
  Na  Na6579  1  0.36666667  0.53333333  0.96666667  1
  Na  Na6580  1  0.36666667  0.73333333  0.16666667  1
  Na  Na6581  1  0.36666667  0.73333333  0.36666667  1
  Na  Na6582  1  0.36666667  0.73333333  0.56666667  1
  Na  Na6583  1  0.36666667  0.73333333  0.76666667  1
  Na  Na6584  1  0.36666667  0.73333333  0.96666667  1
  Na  Na6585  1  0.36666667  0.93333333  0.16666667  1
  Na  Na6586  1  0.36666667  0.93333333  0.36666667  1
  Na  Na6587  1  0.36666667  0.93333333  0.56666667  1
  Na  Na6588  1  0.36666667  0.93333333  0.76666667  1
  Na  Na6589  1  0.36666667  0.93333333  0.96666667  1
  Na  Na6590  1  0.56666667  0.13333333  0.16666667  1
  Na  Na6591  1  0.56666667  0.13333333  0.36666667  1
  Na  Na6592  1  0.56666667  0.13333333  0.56666667  1
  Na  Na6593  1  0.56666667  0.13333333  0.76666667  1
  Na  Na6594  1  0.56666667  0.13333333  0.96666667  1
  Na  Na6595  1  0.56666667  0.33333333  0.16666667  1
  Na  Na6596  1  0.56666667  0.33333333  0.36666667  1
  Na  Na6597  1  0.56666667  0.33333333  0.56666667  1
  Na  Na6598  1  0.56666667  0.33333333  0.76666667  1
  Na  Na6599  1  0.56666667  0.33333333  0.96666667  1
  Na  Na6600  1  0.56666667  0.53333333  0.16666667  1
  Na  Na6601  1  0.56666667  0.53333333  0.36666667  1
  Na  Na6602  1  0.56666667  0.53333333  0.56666667  1
  Na  Na6603  1  0.56666667  0.53333333  0.76666667  1
  Na  Na6604  1  0.56666667  0.53333333  0.96666667  1
  Na  Na6605  1  0.56666667  0.73333333  0.16666667  1
  Na  Na6606  1  0.56666667  0.73333333  0.36666667  1
  Na  Na6607  1  0.56666667  0.73333333  0.56666667  1
  Na  Na6608  1  0.56666667  0.73333333  0.76666667  1
  Na  Na6609  1  0.56666667  0.73333333  0.96666667  1
  Na  Na6610  1  0.56666667  0.93333333  0.16666667  1
  Na  Na6611  1  0.56666667  0.93333333  0.36666667  1
  Na  Na6612  1  0.56666667  0.93333333  0.56666667  1
  Na  Na6613  1  0.56666667  0.93333333  0.76666667  1
  Na  Na6614  1  0.56666667  0.93333333  0.96666667  1
  Na  Na6615  1  0.76666667  0.13333333  0.16666667  1
  Na  Na6616  1  0.76666667  0.13333333  0.36666667  1
  Na  Na6617  1  0.76666667  0.13333333  0.56666667  1
  Na  Na6618  1  0.76666667  0.13333333  0.76666667  1
  Na  Na6619  1  0.76666667  0.13333333  0.96666667  1
  Na  Na6620  1  0.76666667  0.33333333  0.16666667  1
  Na  Na6621  1  0.76666667  0.33333333  0.36666667  1
  Na  Na6622  1  0.76666667  0.33333333  0.56666667  1
  Na  Na6623  1  0.76666667  0.33333333  0.76666667  1
  Na  Na6624  1  0.76666667  0.33333333  0.96666667  1
  Na  Na6625  1  0.76666667  0.53333333  0.16666667  1
  Na  Na6626  1  0.76666667  0.53333333  0.36666667  1
  Na  Na6627  1  0.76666667  0.53333333  0.56666667  1
  Na  Na6628  1  0.76666667  0.53333333  0.76666667  1
  Na  Na6629  1  0.76666667  0.53333333  0.96666667  1
  Na  Na6630  1  0.76666667  0.73333333  0.16666667  1
  Na  Na6631  1  0.76666667  0.73333333  0.36666667  1
  Na  Na6632  1  0.76666667  0.73333333  0.56666667  1
  Na  Na6633  1  0.76666667  0.73333333  0.76666667  1
  Na  Na6634  1  0.76666667  0.73333333  0.96666667  1
  Na  Na6635  1  0.76666667  0.93333333  0.16666667  1
  Na  Na6636  1  0.76666667  0.93333333  0.36666667  1
  Na  Na6637  1  0.76666667  0.93333333  0.56666667  1
  Na  Na6638  1  0.76666667  0.93333333  0.76666667  1
  Na  Na6639  1  0.76666667  0.93333333  0.96666667  1
  Na  Na6640  1  0.96666667  0.13333333  0.16666667  1
  Na  Na6641  1  0.96666667  0.13333333  0.36666667  1
  Na  Na6642  1  0.96666667  0.13333333  0.56666667  1
  Na  Na6643  1  0.96666667  0.13333333  0.76666667  1
  Na  Na6644  1  0.96666667  0.13333333  0.96666667  1
  Na  Na6645  1  0.96666667  0.33333333  0.16666667  1
  Na  Na6646  1  0.96666667  0.33333333  0.36666667  1
  Na  Na6647  1  0.96666667  0.33333333  0.56666667  1
  Na  Na6648  1  0.96666667  0.33333333  0.76666667  1
  Na  Na6649  1  0.96666667  0.33333333  0.96666667  1
  Na  Na6650  1  0.96666667  0.53333333  0.16666667  1
  Na  Na6651  1  0.96666667  0.53333333  0.36666667  1
  Na  Na6652  1  0.96666667  0.53333333  0.56666667  1
  Na  Na6653  1  0.96666667  0.53333333  0.76666667  1
  Na  Na6654  1  0.96666667  0.53333333  0.96666667  1
  Na  Na6655  1  0.96666667  0.73333333  0.16666667  1
  Na  Na6656  1  0.96666667  0.73333333  0.36666667  1
  Na  Na6657  1  0.96666667  0.73333333  0.56666667  1
  Na  Na6658  1  0.96666667  0.73333333  0.76666667  1
  Na  Na6659  1  0.96666667  0.73333333  0.96666667  1
  Na  Na6660  1  0.96666667  0.93333333  0.16666667  1
  Na  Na6661  1  0.96666667  0.93333333  0.36666667  1
  Na  Na6662  1  0.96666667  0.93333333  0.56666667  1
  Na  Na6663  1  0.96666667  0.93333333  0.76666667  1
  Na  Na6664  1  0.96666667  0.93333333  0.96666667  1
  Na  Na6665  1  0.00000000  0.03333333  0.03333333  1
  Na  Na6666  1  0.00000000  0.03333333  0.23333333  1
  Na  Na6667  1  0.00000000  0.03333333  0.43333333  1
  Na  Na6668  1  0.00000000  0.03333333  0.63333333  1
  Na  Na6669  1  0.00000000  0.03333333  0.83333333  1
  Na  Na6670  1  0.00000000  0.23333333  0.03333333  1
  Na  Na6671  1  0.00000000  0.23333333  0.23333333  1
  Na  Na6672  1  0.00000000  0.23333333  0.43333333  1
  Na  Na6673  1  0.00000000  0.23333333  0.63333333  1
  Na  Na6674  1  0.00000000  0.23333333  0.83333333  1
  Na  Na6675  1  0.00000000  0.43333333  0.03333333  1
  Na  Na6676  1  0.00000000  0.43333333  0.23333333  1
  Na  Na6677  1  0.00000000  0.43333333  0.43333333  1
  Na  Na6678  1  0.00000000  0.43333333  0.63333333  1
  Na  Na6679  1  0.00000000  0.43333333  0.83333333  1
  Na  Na6680  1  0.00000000  0.63333333  0.03333333  1
  Na  Na6681  1  0.00000000  0.63333333  0.23333333  1
  Na  Na6682  1  0.00000000  0.63333333  0.43333333  1
  Na  Na6683  1  0.00000000  0.63333333  0.63333333  1
  Na  Na6684  1  0.00000000  0.63333333  0.83333333  1
  Na  Na6685  1  0.00000000  0.83333333  0.03333333  1
  Na  Na6686  1  0.00000000  0.83333333  0.23333333  1
  Na  Na6687  1  0.00000000  0.83333333  0.43333333  1
  Na  Na6688  1  0.00000000  0.83333333  0.63333333  1
  Na  Na6689  1  0.00000000  0.83333333  0.83333333  1
  Na  Na6690  1  0.20000000  0.03333333  0.03333333  1
  Na  Na6691  1  0.20000000  0.03333333  0.23333333  1
  Na  Na6692  1  0.20000000  0.03333333  0.43333333  1
  Na  Na6693  1  0.20000000  0.03333333  0.63333333  1
  Na  Na6694  1  0.20000000  0.03333333  0.83333333  1
  Na  Na6695  1  0.20000000  0.23333333  0.03333333  1
  Na  Na6696  1  0.20000000  0.23333333  0.23333333  1
  Na  Na6697  1  0.20000000  0.23333333  0.43333333  1
  Na  Na6698  1  0.20000000  0.23333333  0.63333333  1
  Na  Na6699  1  0.20000000  0.23333333  0.83333333  1
  Na  Na6700  1  0.20000000  0.43333333  0.03333333  1
  Na  Na6701  1  0.20000000  0.43333333  0.23333333  1
  Na  Na6702  1  0.20000000  0.43333333  0.43333333  1
  Na  Na6703  1  0.20000000  0.43333333  0.63333333  1
  Na  Na6704  1  0.20000000  0.43333333  0.83333333  1
  Na  Na6705  1  0.20000000  0.63333333  0.03333333  1
  Na  Na6706  1  0.20000000  0.63333333  0.23333333  1
  Na  Na6707  1  0.20000000  0.63333333  0.43333333  1
  Na  Na6708  1  0.20000000  0.63333333  0.63333333  1
  Na  Na6709  1  0.20000000  0.63333333  0.83333333  1
  Na  Na6710  1  0.20000000  0.83333333  0.03333333  1
  Na  Na6711  1  0.20000000  0.83333333  0.23333333  1
  Na  Na6712  1  0.20000000  0.83333333  0.43333333  1
  Na  Na6713  1  0.20000000  0.83333333  0.63333333  1
  Na  Na6714  1  0.20000000  0.83333333  0.83333333  1
  Na  Na6715  1  0.40000000  0.03333333  0.03333333  1
  Na  Na6716  1  0.40000000  0.03333333  0.23333333  1
  Na  Na6717  1  0.40000000  0.03333333  0.43333333  1
  Na  Na6718  1  0.40000000  0.03333333  0.63333333  1
  Na  Na6719  1  0.40000000  0.03333333  0.83333333  1
  Na  Na6720  1  0.40000000  0.23333333  0.03333333  1
  Na  Na6721  1  0.40000000  0.23333333  0.23333333  1
  Na  Na6722  1  0.40000000  0.23333333  0.43333333  1
  Na  Na6723  1  0.40000000  0.23333333  0.63333333  1
  Na  Na6724  1  0.40000000  0.23333333  0.83333333  1
  Na  Na6725  1  0.40000000  0.43333333  0.03333333  1
  Na  Na6726  1  0.40000000  0.43333333  0.23333333  1
  Na  Na6727  1  0.40000000  0.43333333  0.43333333  1
  Na  Na6728  1  0.40000000  0.43333333  0.63333333  1
  Na  Na6729  1  0.40000000  0.43333333  0.83333333  1
  Na  Na6730  1  0.40000000  0.63333333  0.03333333  1
  Na  Na6731  1  0.40000000  0.63333333  0.23333333  1
  Na  Na6732  1  0.40000000  0.63333333  0.43333333  1
  Na  Na6733  1  0.40000000  0.63333333  0.63333333  1
  Na  Na6734  1  0.40000000  0.63333333  0.83333333  1
  Na  Na6735  1  0.40000000  0.83333333  0.03333333  1
  Na  Na6736  1  0.40000000  0.83333333  0.23333333  1
  Na  Na6737  1  0.40000000  0.83333333  0.43333333  1
  Na  Na6738  1  0.40000000  0.83333333  0.63333333  1
  Na  Na6739  1  0.40000000  0.83333333  0.83333333  1
  Na  Na6740  1  0.60000000  0.03333333  0.03333333  1
  Na  Na6741  1  0.60000000  0.03333333  0.23333333  1
  Na  Na6742  1  0.60000000  0.03333333  0.43333333  1
  Na  Na6743  1  0.60000000  0.03333333  0.63333333  1
  Na  Na6744  1  0.60000000  0.03333333  0.83333333  1
  Na  Na6745  1  0.60000000  0.23333333  0.03333333  1
  Na  Na6746  1  0.60000000  0.23333333  0.23333333  1
  Na  Na6747  1  0.60000000  0.23333333  0.43333333  1
  Na  Na6748  1  0.60000000  0.23333333  0.63333333  1
  Na  Na6749  1  0.60000000  0.23333333  0.83333333  1
  Na  Na6750  1  0.60000000  0.43333333  0.03333333  1
  Na  Na6751  1  0.60000000  0.43333333  0.23333333  1
  Na  Na6752  1  0.60000000  0.43333333  0.43333333  1
  Na  Na6753  1  0.60000000  0.43333333  0.63333333  1
  Na  Na6754  1  0.60000000  0.43333333  0.83333333  1
  Na  Na6755  1  0.60000000  0.63333333  0.03333333  1
  Na  Na6756  1  0.60000000  0.63333333  0.23333333  1
  Na  Na6757  1  0.60000000  0.63333333  0.43333333  1
  Na  Na6758  1  0.60000000  0.63333333  0.63333333  1
  Na  Na6759  1  0.60000000  0.63333333  0.83333333  1
  Na  Na6760  1  0.60000000  0.83333333  0.03333333  1
  Na  Na6761  1  0.60000000  0.83333333  0.23333333  1
  Na  Na6762  1  0.60000000  0.83333333  0.43333333  1
  Na  Na6763  1  0.60000000  0.83333333  0.63333333  1
  Na  Na6764  1  0.60000000  0.83333333  0.83333333  1
  Na  Na6765  1  0.80000000  0.03333333  0.03333333  1
  Na  Na6766  1  0.80000000  0.03333333  0.23333333  1
  Na  Na6767  1  0.80000000  0.03333333  0.43333333  1
  Na  Na6768  1  0.80000000  0.03333333  0.63333333  1
  Na  Na6769  1  0.80000000  0.03333333  0.83333333  1
  Na  Na6770  1  0.80000000  0.23333333  0.03333333  1
  Na  Na6771  1  0.80000000  0.23333333  0.23333333  1
  Na  Na6772  1  0.80000000  0.23333333  0.43333333  1
  Na  Na6773  1  0.80000000  0.23333333  0.63333333  1
  Na  Na6774  1  0.80000000  0.23333333  0.83333333  1
  Na  Na6775  1  0.80000000  0.43333333  0.03333333  1
  Na  Na6776  1  0.80000000  0.43333333  0.23333333  1
  Na  Na6777  1  0.80000000  0.43333333  0.43333333  1
  Na  Na6778  1  0.80000000  0.43333333  0.63333333  1
  Na  Na6779  1  0.80000000  0.43333333  0.83333333  1
  Na  Na6780  1  0.80000000  0.63333333  0.03333333  1
  Na  Na6781  1  0.80000000  0.63333333  0.23333333  1
  Na  Na6782  1  0.80000000  0.63333333  0.43333333  1
  Na  Na6783  1  0.80000000  0.63333333  0.83333333  1
  Na  Na6784  1  0.80000000  0.83333333  0.03333333  1
  Na  Na6785  1  0.80000000  0.83333333  0.23333333  1
  Na  Na6786  1  0.80000000  0.83333333  0.43333333  1
  Na  Na6787  1  0.80000000  0.83333333  0.63333333  1
  Na  Na6788  1  0.80000000  0.83333333  0.83333333  1
  Na  Na6789  1  0.00000000  0.03333333  0.10000000  1
  Na  Na6790  1  0.00000000  0.03333333  0.30000000  1
  Na  Na6791  1  0.00000000  0.03333333  0.50000000  1
  Na  Na6792  1  0.00000000  0.03333333  0.70000000  1
  Na  Na6793  1  0.00000000  0.03333333  0.90000000  1
  Na  Na6794  1  0.00000000  0.23333333  0.10000000  1
  Na  Na6795  1  0.00000000  0.23333333  0.30000000  1
  Na  Na6796  1  0.00000000  0.23333333  0.50000000  1
  Na  Na6797  1  0.00000000  0.23333333  0.70000000  1
  Na  Na6798  1  0.00000000  0.43333333  0.10000000  1
  Na  Na6799  1  0.00000000  0.43333333  0.30000000  1
  Na  Na6800  1  0.00000000  0.43333333  0.50000000  1
  Na  Na6801  1  0.00000000  0.43333333  0.70000000  1
  Na  Na6802  1  0.00000000  0.43333333  0.90000000  1
  Na  Na6803  1  0.00000000  0.63333333  0.10000000  1
  Na  Na6804  1  0.00000000  0.63333333  0.30000000  1
  Na  Na6805  1  0.00000000  0.63333333  0.50000000  1
  Na  Na6806  1  0.00000000  0.63333333  0.70000000  1
  Na  Na6807  1  0.00000000  0.63333333  0.90000000  1
  Na  Na6808  1  0.00000000  0.83333333  0.10000000  1
  Na  Na6809  1  0.00000000  0.83333333  0.30000000  1
  Na  Na6810  1  0.00000000  0.83333333  0.50000000  1
  Na  Na6811  1  0.00000000  0.83333333  0.70000000  1
  Na  Na6812  1  0.00000000  0.83333333  0.90000000  1
  Na  Na6813  1  0.20000000  0.03333333  0.10000000  1
  Na  Na6814  1  0.20000000  0.03333333  0.30000000  1
  Na  Na6815  1  0.20000000  0.03333333  0.50000000  1
  Na  Na6816  1  0.20000000  0.03333333  0.70000000  1
  Na  Na6817  1  0.20000000  0.03333333  0.90000000  1
  Na  Na6818  1  0.20000000  0.23333333  0.10000000  1
  Na  Na6819  1  0.20000000  0.23333333  0.30000000  1
  Na  Na6820  1  0.20000000  0.23333333  0.50000000  1
  Na  Na6821  1  0.20000000  0.23333333  0.70000000  1
  Na  Na6822  1  0.20000000  0.23333333  0.90000000  1
  Na  Na6823  1  0.20000000  0.43333333  0.10000000  1
  Na  Na6824  1  0.20000000  0.43333333  0.30000000  1
  Na  Na6825  1  0.20000000  0.43333333  0.50000000  1
  Na  Na6826  1  0.20000000  0.43333333  0.70000000  1
  Na  Na6827  1  0.20000000  0.43333333  0.90000000  1
  Na  Na6828  1  0.20000000  0.63333333  0.10000000  1
  Na  Na6829  1  0.20000000  0.63333333  0.30000000  1
  Na  Na6830  1  0.20000000  0.63333333  0.50000000  1
  Na  Na6831  1  0.20000000  0.63333333  0.70000000  1
  Na  Na6832  1  0.20000000  0.63333333  0.90000000  1
  Na  Na6833  1  0.20000000  0.83333333  0.10000000  1
  Na  Na6834  1  0.20000000  0.83333333  0.30000000  1
  Na  Na6835  1  0.20000000  0.83333333  0.50000000  1
  Na  Na6836  1  0.20000000  0.83333333  0.70000000  1
  Na  Na6837  1  0.20000000  0.83333333  0.90000000  1
  Na  Na6838  1  0.40000000  0.03333333  0.10000000  1
  Na  Na6839  1  0.40000000  0.03333333  0.30000000  1
  Na  Na6840  1  0.40000000  0.03333333  0.50000000  1
  Na  Na6841  1  0.40000000  0.03333333  0.70000000  1
  Na  Na6842  1  0.40000000  0.03333333  0.90000000  1
  Na  Na6843  1  0.40000000  0.23333333  0.10000000  1
  Na  Na6844  1  0.40000000  0.23333333  0.30000000  1
  Na  Na6845  1  0.40000000  0.23333333  0.50000000  1
  Na  Na6846  1  0.40000000  0.23333333  0.70000000  1
  Na  Na6847  1  0.40000000  0.23333333  0.90000000  1
  Na  Na6848  1  0.40000000  0.43333333  0.10000000  1
  Na  Na6849  1  0.40000000  0.43333333  0.30000000  1
  Na  Na6850  1  0.40000000  0.43333333  0.50000000  1
  Na  Na6851  1  0.40000000  0.43333333  0.70000000  1
  Na  Na6852  1  0.40000000  0.43333333  0.90000000  1
  Na  Na6853  1  0.40000000  0.63333333  0.10000000  1
  Na  Na6854  1  0.40000000  0.63333333  0.30000000  1
  Na  Na6855  1  0.40000000  0.63333333  0.50000000  1
  Na  Na6856  1  0.40000000  0.63333333  0.70000000  1
  Na  Na6857  1  0.40000000  0.63333333  0.90000000  1
  Na  Na6858  1  0.40000000  0.83333333  0.10000000  1
  Na  Na6859  1  0.40000000  0.83333333  0.30000000  1
  Na  Na6860  1  0.40000000  0.83333333  0.50000000  1
  Na  Na6861  1  0.40000000  0.83333333  0.70000000  1
  Na  Na6862  1  0.40000000  0.83333333  0.90000000  1
  Na  Na6863  1  0.60000000  0.03333333  0.10000000  1
  Na  Na6864  1  0.60000000  0.03333333  0.30000000  1
  Na  Na6865  1  0.60000000  0.03333333  0.50000000  1
  Na  Na6866  1  0.60000000  0.03333333  0.70000000  1
  Na  Na6867  1  0.60000000  0.03333333  0.90000000  1
  Na  Na6868  1  0.60000000  0.23333333  0.10000000  1
  Na  Na6869  1  0.60000000  0.23333333  0.30000000  1
  Na  Na6870  1  0.60000000  0.23333333  0.50000000  1
  Na  Na6871  1  0.60000000  0.23333333  0.70000000  1
  Na  Na6872  1  0.60000000  0.23333333  0.90000000  1
  Na  Na6873  1  0.60000000  0.43333333  0.10000000  1
  Na  Na6874  1  0.60000000  0.43333333  0.30000000  1
  Na  Na6875  1  0.60000000  0.43333333  0.50000000  1
  Na  Na6876  1  0.60000000  0.43333333  0.70000000  1
  Na  Na6877  1  0.60000000  0.43333333  0.90000000  1
  Na  Na6878  1  0.60000000  0.63333333  0.10000000  1
  Na  Na6879  1  0.60000000  0.63333333  0.30000000  1
  Na  Na6880  1  0.60000000  0.63333333  0.50000000  1
  Na  Na6881  1  0.60000000  0.63333333  0.70000000  1
  Na  Na6882  1  0.60000000  0.63333333  0.90000000  1
  Na  Na6883  1  0.60000000  0.83333333  0.10000000  1
  Na  Na6884  1  0.60000000  0.83333333  0.30000000  1
  Na  Na6885  1  0.60000000  0.83333333  0.50000000  1
  Na  Na6886  1  0.60000000  0.83333333  0.70000000  1
  Na  Na6887  1  0.60000000  0.83333333  0.90000000  1
  Na  Na6888  1  0.80000000  0.03333333  0.10000000  1
  Na  Na6889  1  0.80000000  0.03333333  0.30000000  1
  Na  Na6890  1  0.80000000  0.03333333  0.50000000  1
  Na  Na6891  1  0.80000000  0.03333333  0.70000000  1
  Na  Na6892  1  0.80000000  0.03333333  0.90000000  1
  Na  Na6893  1  0.80000000  0.23333333  0.10000000  1
  Na  Na6894  1  0.80000000  0.23333333  0.30000000  1
  Na  Na6895  1  0.80000000  0.23333333  0.50000000  1
  Na  Na6896  1  0.80000000  0.23333333  0.70000000  1
  Na  Na6897  1  0.80000000  0.23333333  0.90000000  1
  Na  Na6898  1  0.80000000  0.43333333  0.10000000  1
  Na  Na6899  1  0.80000000  0.43333333  0.30000000  1
  Na  Na6900  1  0.80000000  0.43333333  0.50000000  1
  Na  Na6901  1  0.80000000  0.43333333  0.70000000  1
  Na  Na6902  1  0.80000000  0.43333333  0.90000000  1
  Na  Na6903  1  0.80000000  0.63333333  0.10000000  1
  Na  Na6904  1  0.80000000  0.63333333  0.30000000  1
  Na  Na6905  1  0.80000000  0.63333333  0.50000000  1
  Na  Na6906  1  0.80000000  0.63333333  0.70000000  1
  Na  Na6907  1  0.80000000  0.63333333  0.90000000  1
  Na  Na6908  1  0.80000000  0.83333333  0.10000000  1
  Na  Na6909  1  0.80000000  0.83333333  0.30000000  1
  Na  Na6910  1  0.80000000  0.83333333  0.50000000  1
  Na  Na6911  1  0.80000000  0.83333333  0.70000000  1
  Na  Na6912  1  0.80000000  0.83333333  0.90000000  1
  Na  Na6913  1  0.00000000  0.03333333  0.16666667  1
  Na  Na6914  1  0.00000000  0.03333333  0.36666667  1
  Na  Na6915  1  0.00000000  0.03333333  0.56666667  1
  Na  Na6916  1  0.00000000  0.03333333  0.76666667  1
  Na  Na6917  1  0.00000000  0.03333333  0.96666667  1
  Na  Na6918  1  0.00000000  0.23333333  0.16666667  1
  Na  Na6919  1  0.00000000  0.23333333  0.36666667  1
  Na  Na6920  1  0.00000000  0.23333333  0.56666667  1
  Na  Na6921  1  0.00000000  0.23333333  0.76666667  1
  Na  Na6922  1  0.00000000  0.23333333  0.96666667  1
  Na  Na6923  1  0.00000000  0.43333333  0.16666667  1
  Na  Na6924  1  0.00000000  0.43333333  0.36666667  1
  Na  Na6925  1  0.00000000  0.43333333  0.56666667  1
  Na  Na6926  1  0.00000000  0.43333333  0.76666667  1
  Na  Na6927  1  0.00000000  0.43333333  0.96666667  1
  Na  Na6928  1  0.00000000  0.63333333  0.16666667  1
  Na  Na6929  1  0.00000000  0.63333333  0.36666667  1
  Na  Na6930  1  0.00000000  0.63333333  0.56666667  1
  Na  Na6931  1  0.00000000  0.63333333  0.76666667  1
  Na  Na6932  1  0.00000000  0.63333333  0.96666667  1
  Na  Na6933  1  0.00000000  0.83333333  0.16666667  1
  Na  Na6934  1  0.00000000  0.83333333  0.36666667  1
  Na  Na6935  1  0.00000000  0.83333333  0.56666667  1
  Na  Na6936  1  0.00000000  0.83333333  0.76666667  1
  Na  Na6937  1  0.00000000  0.83333333  0.96666667  1
  Na  Na6938  1  0.20000000  0.03333333  0.16666667  1
  Na  Na6939  1  0.20000000  0.03333333  0.36666667  1
  Na  Na6940  1  0.20000000  0.03333333  0.56666667  1
  Na  Na6941  1  0.20000000  0.03333333  0.76666667  1
  Na  Na6942  1  0.20000000  0.03333333  0.96666667  1
  Na  Na6943  1  0.20000000  0.23333333  0.16666667  1
  Na  Na6944  1  0.20000000  0.23333333  0.36666667  1
  Na  Na6945  1  0.20000000  0.23333333  0.56666667  1
  Na  Na6946  1  0.20000000  0.23333333  0.76666667  1
  Na  Na6947  1  0.20000000  0.23333333  0.96666667  1
  Na  Na6948  1  0.20000000  0.43333333  0.16666667  1
  Na  Na6949  1  0.20000000  0.43333333  0.36666667  1
  Na  Na6950  1  0.20000000  0.43333333  0.56666667  1
  Na  Na6951  1  0.20000000  0.43333333  0.76666667  1
  Na  Na6952  1  0.20000000  0.43333333  0.96666667  1
  Na  Na6953  1  0.20000000  0.63333333  0.16666667  1
  Na  Na6954  1  0.20000000  0.63333333  0.36666667  1
  Na  Na6955  1  0.20000000  0.63333333  0.56666667  1
  Na  Na6956  1  0.20000000  0.63333333  0.76666667  1
  Na  Na6957  1  0.20000000  0.63333333  0.96666667  1
  Na  Na6958  1  0.20000000  0.83333333  0.16666667  1
  Na  Na6959  1  0.20000000  0.83333333  0.36666667  1
  Na  Na6960  1  0.20000000  0.83333333  0.56666667  1
  Na  Na6961  1  0.20000000  0.83333333  0.76666667  1
  Na  Na6962  1  0.20000000  0.83333333  0.96666667  1
  Na  Na6963  1  0.40000000  0.03333333  0.16666667  1
  Na  Na6964  1  0.40000000  0.03333333  0.36666667  1
  Na  Na6965  1  0.40000000  0.03333333  0.56666667  1
  Na  Na6966  1  0.40000000  0.03333333  0.76666667  1
  Na  Na6967  1  0.40000000  0.03333333  0.96666667  1
  Na  Na6968  1  0.40000000  0.23333333  0.16666667  1
  Na  Na6969  1  0.40000000  0.23333333  0.36666667  1
  Na  Na6970  1  0.40000000  0.23333333  0.56666667  1
  Na  Na6971  1  0.40000000  0.23333333  0.76666667  1
  Na  Na6972  1  0.40000000  0.23333333  0.96666667  1
  Na  Na6973  1  0.40000000  0.43333333  0.16666667  1
  Na  Na6974  1  0.40000000  0.43333333  0.36666667  1
  Na  Na6975  1  0.40000000  0.43333333  0.56666667  1
  Na  Na6976  1  0.40000000  0.43333333  0.76666667  1
  Na  Na6977  1  0.40000000  0.43333333  0.96666667  1
  Na  Na6978  1  0.40000000  0.63333333  0.16666667  1
  Na  Na6979  1  0.40000000  0.63333333  0.36666667  1
  Na  Na6980  1  0.40000000  0.63333333  0.56666667  1
  Na  Na6981  1  0.40000000  0.63333333  0.76666667  1
  Na  Na6982  1  0.40000000  0.63333333  0.96666667  1
  Na  Na6983  1  0.40000000  0.83333333  0.16666667  1
  Na  Na6984  1  0.40000000  0.83333333  0.36666667  1
  Na  Na6985  1  0.40000000  0.83333333  0.56666667  1
  Na  Na6986  1  0.40000000  0.83333333  0.76666667  1
  Na  Na6987  1  0.40000000  0.83333333  0.96666667  1
  Na  Na6988  1  0.60000000  0.03333333  0.16666667  1
  Na  Na6989  1  0.60000000  0.03333333  0.36666667  1
  Na  Na6990  1  0.60000000  0.03333333  0.56666667  1
  Na  Na6991  1  0.60000000  0.03333333  0.76666667  1
  Na  Na6992  1  0.60000000  0.03333333  0.96666667  1
  Na  Na6993  1  0.60000000  0.23333333  0.16666667  1
  Na  Na6994  1  0.60000000  0.23333333  0.36666667  1
  Na  Na6995  1  0.60000000  0.23333333  0.56666667  1
  Na  Na6996  1  0.60000000  0.23333333  0.76666667  1
  Na  Na6997  1  0.60000000  0.23333333  0.96666667  1
  Na  Na6998  1  0.60000000  0.43333333  0.16666667  1
  Na  Na6999  1  0.60000000  0.43333333  0.36666667  1
  Na  Na7000  1  0.60000000  0.43333333  0.56666667  1
  Na  Na7001  1  0.60000000  0.43333333  0.76666667  1
  Na  Na7002  1  0.60000000  0.43333333  0.96666667  1
  Na  Na7003  1  0.60000000  0.63333333  0.16666667  1
  Na  Na7004  1  0.60000000  0.63333333  0.36666667  1
  Na  Na7005  1  0.60000000  0.63333333  0.56666667  1
  Na  Na7006  1  0.60000000  0.63333333  0.76666667  1
  Na  Na7007  1  0.60000000  0.63333333  0.96666667  1
  Na  Na7008  1  0.60000000  0.83333333  0.16666667  1
  Na  Na7009  1  0.60000000  0.83333333  0.36666667  1
  Na  Na7010  1  0.60000000  0.83333333  0.56666667  1
  Na  Na7011  1  0.60000000  0.83333333  0.76666667  1
  Na  Na7012  1  0.60000000  0.83333333  0.96666667  1
  Na  Na7013  1  0.80000000  0.03333333  0.16666667  1
  Na  Na7014  1  0.80000000  0.03333333  0.36666667  1
  Na  Na7015  1  0.80000000  0.03333333  0.56666667  1
  Na  Na7016  1  0.80000000  0.03333333  0.76666667  1
  Na  Na7017  1  0.80000000  0.03333333  0.96666667  1
  Na  Na7018  1  0.80000000  0.23333333  0.16666667  1
  Na  Na7019  1  0.80000000  0.23333333  0.36666667  1
  Na  Na7020  1  0.80000000  0.23333333  0.56666667  1
  Na  Na7021  1  0.80000000  0.23333333  0.76666667  1
  Na  Na7022  1  0.80000000  0.23333333  0.96666667  1
  Na  Na7023  1  0.80000000  0.43333333  0.16666667  1
  Na  Na7024  1  0.80000000  0.43333333  0.36666667  1
  Na  Na7025  1  0.80000000  0.43333333  0.56666667  1
  Na  Na7026  1  0.80000000  0.43333333  0.76666667  1
  Na  Na7027  1  0.80000000  0.43333333  0.96666667  1
  Na  Na7028  1  0.80000000  0.63333333  0.16666667  1
  Na  Na7029  1  0.80000000  0.63333333  0.36666667  1
  Na  Na7030  1  0.80000000  0.63333333  0.56666667  1
  Na  Na7031  1  0.80000000  0.63333333  0.76666667  1
  Na  Na7032  1  0.80000000  0.63333333  0.96666667  1
  Na  Na7033  1  0.80000000  0.83333333  0.16666667  1
  Na  Na7034  1  0.80000000  0.83333333  0.36666667  1
  Na  Na7035  1  0.80000000  0.83333333  0.56666667  1
  Na  Na7036  1  0.80000000  0.83333333  0.76666667  1
  Na  Na7037  1  0.80000000  0.83333333  0.96666667  1
  Na  Na7038  1  0.00000000  0.10000000  0.03333333  1
  Na  Na7039  1  0.00000000  0.10000000  0.23333333  1
  Na  Na7040  1  0.00000000  0.10000000  0.43333333  1
  Na  Na7041  1  0.00000000  0.10000000  0.63333333  1
  Na  Na7042  1  0.00000000  0.10000000  0.83333333  1
  Na  Na7043  1  0.00000000  0.30000000  0.03333333  1
  Na  Na7044  1  0.00000000  0.30000000  0.23333333  1
  Na  Na7045  1  0.00000000  0.30000000  0.43333333  1
  Na  Na7046  1  0.00000000  0.30000000  0.63333333  1
  Na  Na7047  1  0.00000000  0.30000000  0.83333333  1
  Na  Na7048  1  0.00000000  0.50000000  0.03333333  1
  Na  Na7049  1  0.00000000  0.50000000  0.23333333  1
  Na  Na7050  1  0.00000000  0.50000000  0.43333333  1
  Na  Na7051  1  0.00000000  0.50000000  0.63333333  1
  Na  Na7052  1  0.00000000  0.50000000  0.83333333  1
  Na  Na7053  1  0.00000000  0.70000000  0.03333333  1
  Na  Na7054  1  0.00000000  0.70000000  0.23333333  1
  Na  Na7055  1  0.00000000  0.70000000  0.43333333  1
  Na  Na7056  1  0.00000000  0.70000000  0.63333333  1
  Na  Na7057  1  0.00000000  0.70000000  0.83333333  1
  Na  Na7058  1  0.00000000  0.90000000  0.03333333  1
  Na  Na7059  1  0.00000000  0.90000000  0.23333333  1
  Na  Na7060  1  0.00000000  0.90000000  0.43333333  1
  Na  Na7061  1  0.00000000  0.90000000  0.63333333  1
  Na  Na7062  1  0.00000000  0.90000000  0.83333333  1
  Na  Na7063  1  0.20000000  0.10000000  0.03333333  1
  Na  Na7064  1  0.20000000  0.10000000  0.23333333  1
  Na  Na7065  1  0.20000000  0.10000000  0.43333333  1
  Na  Na7066  1  0.20000000  0.10000000  0.63333333  1
  Na  Na7067  1  0.20000000  0.10000000  0.83333333  1
  Na  Na7068  1  0.20000000  0.30000000  0.03333333  1
  Na  Na7069  1  0.20000000  0.30000000  0.23333333  1
  Na  Na7070  1  0.20000000  0.30000000  0.43333333  1
  Na  Na7071  1  0.20000000  0.30000000  0.63333333  1
  Na  Na7072  1  0.20000000  0.30000000  0.83333333  1
  Na  Na7073  1  0.20000000  0.50000000  0.03333333  1
  Na  Na7074  1  0.20000000  0.50000000  0.23333333  1
  Na  Na7075  1  0.20000000  0.50000000  0.43333333  1
  Na  Na7076  1  0.20000000  0.50000000  0.63333333  1
  Na  Na7077  1  0.20000000  0.50000000  0.83333333  1
  Na  Na7078  1  0.20000000  0.70000000  0.03333333  1
  Na  Na7079  1  0.20000000  0.70000000  0.23333333  1
  Na  Na7080  1  0.20000000  0.70000000  0.43333333  1
  Na  Na7081  1  0.20000000  0.70000000  0.63333333  1
  Na  Na7082  1  0.20000000  0.70000000  0.83333333  1
  Na  Na7083  1  0.20000000  0.90000000  0.03333333  1
  Na  Na7084  1  0.20000000  0.90000000  0.23333333  1
  Na  Na7085  1  0.20000000  0.90000000  0.43333333  1
  Na  Na7086  1  0.20000000  0.90000000  0.63333333  1
  Na  Na7087  1  0.20000000  0.90000000  0.83333333  1
  Na  Na7088  1  0.40000000  0.10000000  0.03333333  1
  Na  Na7089  1  0.40000000  0.10000000  0.23333333  1
  Na  Na7090  1  0.40000000  0.10000000  0.43333333  1
  Na  Na7091  1  0.40000000  0.10000000  0.63333333  1
  Na  Na7092  1  0.40000000  0.10000000  0.83333333  1
  Na  Na7093  1  0.40000000  0.30000000  0.03333333  1
  Na  Na7094  1  0.40000000  0.30000000  0.23333333  1
  Na  Na7095  1  0.40000000  0.30000000  0.43333333  1
  Na  Na7096  1  0.40000000  0.30000000  0.63333333  1
  Na  Na7097  1  0.40000000  0.30000000  0.83333333  1
  Na  Na7098  1  0.40000000  0.50000000  0.03333333  1
  Na  Na7099  1  0.40000000  0.50000000  0.23333333  1
  Na  Na7100  1  0.40000000  0.50000000  0.43333333  1
  Na  Na7101  1  0.40000000  0.50000000  0.63333333  1
  Na  Na7102  1  0.40000000  0.50000000  0.83333333  1
  Na  Na7103  1  0.40000000  0.70000000  0.03333333  1
  Na  Na7104  1  0.40000000  0.70000000  0.23333333  1
  Na  Na7105  1  0.40000000  0.70000000  0.43333333  1
  Na  Na7106  1  0.40000000  0.70000000  0.63333333  1
  Na  Na7107  1  0.40000000  0.70000000  0.83333333  1
  Na  Na7108  1  0.40000000  0.90000000  0.03333333  1
  Na  Na7109  1  0.40000000  0.90000000  0.23333333  1
  Na  Na7110  1  0.40000000  0.90000000  0.43333333  1
  Na  Na7111  1  0.40000000  0.90000000  0.63333333  1
  Na  Na7112  1  0.40000000  0.90000000  0.83333333  1
  Na  Na7113  1  0.60000000  0.10000000  0.03333333  1
  Na  Na7114  1  0.60000000  0.10000000  0.23333333  1
  Na  Na7115  1  0.60000000  0.10000000  0.43333333  1
  Na  Na7116  1  0.60000000  0.10000000  0.63333333  1
  Na  Na7117  1  0.60000000  0.10000000  0.83333333  1
  Na  Na7118  1  0.60000000  0.30000000  0.03333333  1
  Na  Na7119  1  0.60000000  0.30000000  0.23333333  1
  Na  Na7120  1  0.60000000  0.30000000  0.43333333  1
  Na  Na7121  1  0.60000000  0.30000000  0.83333333  1
  Na  Na7122  1  0.60000000  0.50000000  0.03333333  1
  Na  Na7123  1  0.60000000  0.50000000  0.23333333  1
  Na  Na7124  1  0.60000000  0.50000000  0.43333333  1
  Na  Na7125  1  0.60000000  0.50000000  0.63333333  1
  Na  Na7126  1  0.60000000  0.70000000  0.03333333  1
  Na  Na7127  1  0.60000000  0.70000000  0.23333333  1
  Na  Na7128  1  0.60000000  0.70000000  0.43333333  1
  Na  Na7129  1  0.60000000  0.70000000  0.63333333  1
  Na  Na7130  1  0.60000000  0.70000000  0.83333333  1
  Na  Na7131  1  0.60000000  0.90000000  0.03333333  1
  Na  Na7132  1  0.60000000  0.90000000  0.23333333  1
  Na  Na7133  1  0.60000000  0.90000000  0.43333333  1
  Na  Na7134  1  0.60000000  0.90000000  0.63333333  1
  Na  Na7135  1  0.60000000  0.90000000  0.83333333  1
  Na  Na7136  1  0.80000000  0.10000000  0.03333333  1
  Na  Na7137  1  0.80000000  0.10000000  0.23333333  1
  Na  Na7138  1  0.80000000  0.10000000  0.43333333  1
  Na  Na7139  1  0.80000000  0.10000000  0.63333333  1
  Na  Na7140  1  0.80000000  0.10000000  0.83333333  1
  Na  Na7141  1  0.80000000  0.30000000  0.03333333  1
  Na  Na7142  1  0.80000000  0.30000000  0.23333333  1
  Na  Na7143  1  0.80000000  0.30000000  0.43333333  1
  Na  Na7144  1  0.80000000  0.30000000  0.63333333  1
  Na  Na7145  1  0.80000000  0.30000000  0.83333333  1
  Na  Na7146  1  0.80000000  0.50000000  0.03333333  1
  Na  Na7147  1  0.80000000  0.50000000  0.23333333  1
  Na  Na7148  1  0.80000000  0.50000000  0.43333333  1
  Na  Na7149  1  0.80000000  0.50000000  0.63333333  1
  Na  Na7150  1  0.80000000  0.50000000  0.83333333  1
  Na  Na7151  1  0.80000000  0.70000000  0.03333333  1
  Na  Na7152  1  0.80000000  0.70000000  0.23333333  1
  Na  Na7153  1  0.80000000  0.70000000  0.43333333  1
  Na  Na7154  1  0.80000000  0.70000000  0.63333333  1
  Na  Na7155  1  0.80000000  0.70000000  0.83333333  1
  Na  Na7156  1  0.80000000  0.90000000  0.03333333  1
  Na  Na7157  1  0.80000000  0.90000000  0.23333333  1
  Na  Na7158  1  0.80000000  0.90000000  0.43333333  1
  Na  Na7159  1  0.80000000  0.90000000  0.63333333  1
  Na  Na7160  1  0.80000000  0.90000000  0.83333333  1
  Na  Na7161  1  0.00000000  0.10000000  0.10000000  1
  Na  Na7162  1  0.00000000  0.10000000  0.30000000  1
  Na  Na7163  1  0.00000000  0.10000000  0.50000000  1
  Na  Na7164  1  0.00000000  0.10000000  0.70000000  1
  Na  Na7165  1  0.00000000  0.10000000  0.90000000  1
  Na  Na7166  1  0.00000000  0.30000000  0.10000000  1
  Na  Na7167  1  0.00000000  0.30000000  0.30000000  1
  Na  Na7168  1  0.00000000  0.30000000  0.50000000  1
  Na  Na7169  1  0.00000000  0.30000000  0.70000000  1
  Na  Na7170  1  0.00000000  0.30000000  0.90000000  1
  Na  Na7171  1  0.00000000  0.50000000  0.10000000  1
  Na  Na7172  1  0.00000000  0.50000000  0.30000000  1
  Na  Na7173  1  0.00000000  0.50000000  0.50000000  1
  Na  Na7174  1  0.00000000  0.50000000  0.70000000  1
  Na  Na7175  1  0.00000000  0.50000000  0.90000000  1
  Na  Na7176  1  0.00000000  0.70000000  0.10000000  1
  Na  Na7177  1  0.00000000  0.70000000  0.30000000  1
  Na  Na7178  1  0.00000000  0.70000000  0.50000000  1
  Na  Na7179  1  0.00000000  0.70000000  0.70000000  1
  Na  Na7180  1  0.00000000  0.70000000  0.90000000  1
  Na  Na7181  1  0.00000000  0.90000000  0.10000000  1
  Na  Na7182  1  0.00000000  0.90000000  0.30000000  1
  Na  Na7183  1  0.00000000  0.90000000  0.50000000  1
  Na  Na7184  1  0.00000000  0.90000000  0.70000000  1
  Na  Na7185  1  0.00000000  0.90000000  0.90000000  1
  Na  Na7186  1  0.20000000  0.10000000  0.10000000  1
  Na  Na7187  1  0.20000000  0.10000000  0.30000000  1
  Na  Na7188  1  0.20000000  0.10000000  0.50000000  1
  Na  Na7189  1  0.20000000  0.10000000  0.70000000  1
  Na  Na7190  1  0.20000000  0.10000000  0.90000000  1
  Na  Na7191  1  0.20000000  0.30000000  0.10000000  1
  Na  Na7192  1  0.20000000  0.30000000  0.30000000  1
  Na  Na7193  1  0.20000000  0.30000000  0.50000000  1
  Na  Na7194  1  0.20000000  0.30000000  0.70000000  1
  Na  Na7195  1  0.20000000  0.30000000  0.90000000  1
  Na  Na7196  1  0.20000000  0.50000000  0.10000000  1
  Na  Na7197  1  0.20000000  0.50000000  0.30000000  1
  Na  Na7198  1  0.20000000  0.50000000  0.50000000  1
  Na  Na7199  1  0.20000000  0.50000000  0.70000000  1
  Na  Na7200  1  0.20000000  0.50000000  0.90000000  1
  Na  Na7201  1  0.20000000  0.70000000  0.10000000  1
  Na  Na7202  1  0.20000000  0.70000000  0.30000000  1
  Na  Na7203  1  0.20000000  0.70000000  0.50000000  1
  Na  Na7204  1  0.20000000  0.70000000  0.70000000  1
  Na  Na7205  1  0.20000000  0.70000000  0.90000000  1
  Na  Na7206  1  0.20000000  0.90000000  0.10000000  1
  Na  Na7207  1  0.20000000  0.90000000  0.30000000  1
  Na  Na7208  1  0.20000000  0.90000000  0.50000000  1
  Na  Na7209  1  0.20000000  0.90000000  0.70000000  1
  Na  Na7210  1  0.20000000  0.90000000  0.90000000  1
  Na  Na7211  1  0.40000000  0.10000000  0.10000000  1
  Na  Na7212  1  0.40000000  0.10000000  0.30000000  1
  Na  Na7213  1  0.40000000  0.10000000  0.50000000  1
  Na  Na7214  1  0.40000000  0.10000000  0.70000000  1
  Na  Na7215  1  0.40000000  0.10000000  0.90000000  1
  Na  Na7216  1  0.40000000  0.30000000  0.10000000  1
  Na  Na7217  1  0.40000000  0.30000000  0.30000000  1
  Na  Na7218  1  0.40000000  0.30000000  0.50000000  1
  Na  Na7219  1  0.40000000  0.30000000  0.70000000  1
  Na  Na7220  1  0.40000000  0.30000000  0.90000000  1
  Na  Na7221  1  0.40000000  0.50000000  0.10000000  1
  Na  Na7222  1  0.40000000  0.50000000  0.30000000  1
  Na  Na7223  1  0.40000000  0.50000000  0.50000000  1
  Na  Na7224  1  0.40000000  0.50000000  0.70000000  1
  Na  Na7225  1  0.40000000  0.50000000  0.90000000  1
  Na  Na7226  1  0.40000000  0.70000000  0.10000000  1
  Na  Na7227  1  0.40000000  0.70000000  0.30000000  1
  Na  Na7228  1  0.40000000  0.70000000  0.50000000  1
  Na  Na7229  1  0.40000000  0.70000000  0.70000000  1
  Na  Na7230  1  0.40000000  0.70000000  0.90000000  1
  Na  Na7231  1  0.40000000  0.90000000  0.10000000  1
  Na  Na7232  1  0.40000000  0.90000000  0.30000000  1
  Na  Na7233  1  0.40000000  0.90000000  0.50000000  1
  Na  Na7234  1  0.40000000  0.90000000  0.70000000  1
  Na  Na7235  1  0.40000000  0.90000000  0.90000000  1
  Na  Na7236  1  0.60000000  0.10000000  0.10000000  1
  Na  Na7237  1  0.60000000  0.10000000  0.30000000  1
  Na  Na7238  1  0.60000000  0.10000000  0.50000000  1
  Na  Na7239  1  0.60000000  0.10000000  0.70000000  1
  Na  Na7240  1  0.60000000  0.10000000  0.90000000  1
  Na  Na7241  1  0.60000000  0.30000000  0.10000000  1
  Na  Na7242  1  0.60000000  0.30000000  0.30000000  1
  Na  Na7243  1  0.60000000  0.30000000  0.50000000  1
  Na  Na7244  1  0.60000000  0.30000000  0.70000000  1
  Na  Na7245  1  0.60000000  0.30000000  0.90000000  1
  Na  Na7246  1  0.60000000  0.50000000  0.10000000  1
  Na  Na7247  1  0.60000000  0.50000000  0.30000000  1
  Na  Na7248  1  0.60000000  0.50000000  0.50000000  1
  Na  Na7249  1  0.60000000  0.50000000  0.70000000  1
  Na  Na7250  1  0.60000000  0.50000000  0.90000000  1
  Na  Na7251  1  0.60000000  0.70000000  0.10000000  1
  Na  Na7252  1  0.60000000  0.70000000  0.30000000  1
  Na  Na7253  1  0.60000000  0.70000000  0.50000000  1
  Na  Na7254  1  0.60000000  0.70000000  0.70000000  1
  Na  Na7255  1  0.60000000  0.70000000  0.90000000  1
  Na  Na7256  1  0.60000000  0.90000000  0.10000000  1
  Na  Na7257  1  0.60000000  0.90000000  0.30000000  1
  Na  Na7258  1  0.60000000  0.90000000  0.50000000  1
  Na  Na7259  1  0.60000000  0.90000000  0.70000000  1
  Na  Na7260  1  0.60000000  0.90000000  0.90000000  1
  Na  Na7261  1  0.80000000  0.10000000  0.10000000  1
  Na  Na7262  1  0.80000000  0.10000000  0.30000000  1
  Na  Na7263  1  0.80000000  0.10000000  0.50000000  1
  Na  Na7264  1  0.80000000  0.10000000  0.70000000  1
  Na  Na7265  1  0.80000000  0.10000000  0.90000000  1
  Na  Na7266  1  0.80000000  0.30000000  0.10000000  1
  Na  Na7267  1  0.80000000  0.30000000  0.30000000  1
  Na  Na7268  1  0.80000000  0.30000000  0.50000000  1
  Na  Na7269  1  0.80000000  0.30000000  0.70000000  1
  Na  Na7270  1  0.80000000  0.30000000  0.90000000  1
  Na  Na7271  1  0.80000000  0.50000000  0.10000000  1
  Na  Na7272  1  0.80000000  0.50000000  0.30000000  1
  Na  Na7273  1  0.80000000  0.50000000  0.50000000  1
  Na  Na7274  1  0.80000000  0.50000000  0.70000000  1
  Na  Na7275  1  0.80000000  0.50000000  0.90000000  1
  Na  Na7276  1  0.80000000  0.70000000  0.10000000  1
  Na  Na7277  1  0.80000000  0.70000000  0.30000000  1
  Na  Na7278  1  0.80000000  0.70000000  0.50000000  1
  Na  Na7279  1  0.80000000  0.70000000  0.70000000  1
  Na  Na7280  1  0.80000000  0.70000000  0.90000000  1
  Na  Na7281  1  0.80000000  0.90000000  0.10000000  1
  Na  Na7282  1  0.80000000  0.90000000  0.30000000  1
  Na  Na7283  1  0.80000000  0.90000000  0.50000000  1
  Na  Na7284  1  0.80000000  0.90000000  0.70000000  1
  Na  Na7285  1  0.80000000  0.90000000  0.90000000  1
  Na  Na7286  1  0.00000000  0.10000000  0.16666667  1
  Na  Na7287  1  0.00000000  0.10000000  0.36666667  1
  Na  Na7288  1  0.00000000  0.10000000  0.56666667  1
  Na  Na7289  1  0.00000000  0.10000000  0.76666667  1
  Na  Na7290  1  0.00000000  0.10000000  0.96666667  1
  Na  Na7291  1  0.00000000  0.30000000  0.16666667  1
  Na  Na7292  1  0.00000000  0.30000000  0.36666667  1
  Na  Na7293  1  0.00000000  0.30000000  0.76666667  1
  Na  Na7294  1  0.00000000  0.30000000  0.96666667  1
  Na  Na7295  1  0.00000000  0.50000000  0.16666667  1
  Na  Na7296  1  0.00000000  0.50000000  0.36666667  1
  Na  Na7297  1  0.00000000  0.50000000  0.56666667  1
  Na  Na7298  1  0.00000000  0.50000000  0.76666667  1
  Na  Na7299  1  0.00000000  0.50000000  0.96666667  1
  Na  Na7300  1  0.00000000  0.70000000  0.16666667  1
  Na  Na7301  1  0.00000000  0.70000000  0.36666667  1
  Na  Na7302  1  0.00000000  0.70000000  0.56666667  1
  Na  Na7303  1  0.00000000  0.70000000  0.76666667  1
  Na  Na7304  1  0.00000000  0.70000000  0.96666667  1
  Na  Na7305  1  0.00000000  0.90000000  0.16666667  1
  Na  Na7306  1  0.00000000  0.90000000  0.36666667  1
  Na  Na7307  1  0.00000000  0.90000000  0.56666667  1
  Na  Na7308  1  0.00000000  0.90000000  0.76666667  1
  Na  Na7309  1  0.00000000  0.90000000  0.96666667  1
  Na  Na7310  1  0.20000000  0.10000000  0.16666667  1
  Na  Na7311  1  0.20000000  0.10000000  0.36666667  1
  Na  Na7312  1  0.20000000  0.10000000  0.56666667  1
  Na  Na7313  1  0.20000000  0.10000000  0.76666667  1
  Na  Na7314  1  0.20000000  0.10000000  0.96666667  1
  Na  Na7315  1  0.20000000  0.30000000  0.16666667  1
  Na  Na7316  1  0.20000000  0.30000000  0.36666667  1
  Na  Na7317  1  0.20000000  0.30000000  0.56666667  1
  Na  Na7318  1  0.20000000  0.30000000  0.76666667  1
  Na  Na7319  1  0.20000000  0.30000000  0.96666667  1
  Na  Na7320  1  0.20000000  0.50000000  0.16666667  1
  Na  Na7321  1  0.20000000  0.50000000  0.36666667  1
  Na  Na7322  1  0.20000000  0.50000000  0.56666667  1
  Na  Na7323  1  0.20000000  0.50000000  0.76666667  1
  Na  Na7324  1  0.20000000  0.50000000  0.96666667  1
  Na  Na7325  1  0.20000000  0.70000000  0.16666667  1
  Na  Na7326  1  0.20000000  0.70000000  0.36666667  1
  Na  Na7327  1  0.20000000  0.70000000  0.56666667  1
  Na  Na7328  1  0.20000000  0.70000000  0.76666667  1
  Na  Na7329  1  0.20000000  0.70000000  0.96666667  1
  Na  Na7330  1  0.20000000  0.90000000  0.16666667  1
  Na  Na7331  1  0.20000000  0.90000000  0.36666667  1
  Na  Na7332  1  0.20000000  0.90000000  0.56666667  1
  Na  Na7333  1  0.20000000  0.90000000  0.76666667  1
  Na  Na7334  1  0.20000000  0.90000000  0.96666667  1
  Na  Na7335  1  0.40000000  0.10000000  0.16666667  1
  Na  Na7336  1  0.40000000  0.10000000  0.36666667  1
  Na  Na7337  1  0.40000000  0.10000000  0.56666667  1
  Na  Na7338  1  0.40000000  0.10000000  0.76666667  1
  Na  Na7339  1  0.40000000  0.10000000  0.96666667  1
  Na  Na7340  1  0.40000000  0.30000000  0.16666667  1
  Na  Na7341  1  0.40000000  0.30000000  0.36666667  1
  Na  Na7342  1  0.40000000  0.30000000  0.56666667  1
  Na  Na7343  1  0.40000000  0.30000000  0.76666667  1
  Na  Na7344  1  0.40000000  0.30000000  0.96666667  1
  Na  Na7345  1  0.40000000  0.50000000  0.16666667  1
  Na  Na7346  1  0.40000000  0.50000000  0.36666667  1
  Na  Na7347  1  0.40000000  0.50000000  0.56666667  1
  Na  Na7348  1  0.40000000  0.50000000  0.76666667  1
  Na  Na7349  1  0.40000000  0.50000000  0.96666667  1
  Na  Na7350  1  0.40000000  0.70000000  0.16666667  1
  Na  Na7351  1  0.40000000  0.70000000  0.36666667  1
  Na  Na7352  1  0.40000000  0.70000000  0.56666667  1
  Na  Na7353  1  0.40000000  0.70000000  0.76666667  1
  Na  Na7354  1  0.40000000  0.70000000  0.96666667  1
  Na  Na7355  1  0.40000000  0.90000000  0.16666667  1
  Na  Na7356  1  0.40000000  0.90000000  0.36666667  1
  Na  Na7357  1  0.40000000  0.90000000  0.56666667  1
  Na  Na7358  1  0.40000000  0.90000000  0.76666667  1
  Na  Na7359  1  0.40000000  0.90000000  0.96666667  1
  Na  Na7360  1  0.60000000  0.10000000  0.16666667  1
  Na  Na7361  1  0.60000000  0.10000000  0.36666667  1
  Na  Na7362  1  0.60000000  0.10000000  0.56666667  1
  Na  Na7363  1  0.60000000  0.10000000  0.76666667  1
  Na  Na7364  1  0.60000000  0.10000000  0.96666667  1
  Na  Na7365  1  0.60000000  0.30000000  0.16666667  1
  Na  Na7366  1  0.60000000  0.30000000  0.36666667  1
  Na  Na7367  1  0.60000000  0.30000000  0.56666667  1
  Na  Na7368  1  0.60000000  0.30000000  0.76666667  1
  Na  Na7369  1  0.60000000  0.30000000  0.96666667  1
  Na  Na7370  1  0.60000000  0.50000000  0.16666667  1
  Na  Na7371  1  0.60000000  0.50000000  0.36666667  1
  Na  Na7372  1  0.60000000  0.50000000  0.56666667  1
  Na  Na7373  1  0.60000000  0.50000000  0.76666667  1
  Na  Na7374  1  0.60000000  0.50000000  0.96666667  1
  Na  Na7375  1  0.60000000  0.70000000  0.16666667  1
  Na  Na7376  1  0.60000000  0.70000000  0.36666667  1
  Na  Na7377  1  0.60000000  0.70000000  0.56666667  1
  Na  Na7378  1  0.60000000  0.70000000  0.76666667  1
  Na  Na7379  1  0.60000000  0.70000000  0.96666667  1
  Na  Na7380  1  0.60000000  0.90000000  0.16666667  1
  Na  Na7381  1  0.60000000  0.90000000  0.36666667  1
  Na  Na7382  1  0.60000000  0.90000000  0.56666667  1
  Na  Na7383  1  0.60000000  0.90000000  0.76666667  1
  Na  Na7384  1  0.60000000  0.90000000  0.96666667  1
  Na  Na7385  1  0.80000000  0.10000000  0.16666667  1
  Na  Na7386  1  0.80000000  0.10000000  0.36666667  1
  Na  Na7387  1  0.80000000  0.10000000  0.56666667  1
  Na  Na7388  1  0.80000000  0.10000000  0.76666667  1
  Na  Na7389  1  0.80000000  0.10000000  0.96666667  1
  Na  Na7390  1  0.80000000  0.30000000  0.16666667  1
  Na  Na7391  1  0.80000000  0.30000000  0.36666667  1
  Na  Na7392  1  0.80000000  0.30000000  0.56666667  1
  Na  Na7393  1  0.80000000  0.30000000  0.76666667  1
  Na  Na7394  1  0.80000000  0.30000000  0.96666667  1
  Na  Na7395  1  0.80000000  0.50000000  0.16666667  1
  Na  Na7396  1  0.80000000  0.50000000  0.36666667  1
  Na  Na7397  1  0.80000000  0.50000000  0.56666667  1
  Na  Na7398  1  0.80000000  0.50000000  0.76666667  1
  Na  Na7399  1  0.80000000  0.50000000  0.96666667  1
  Na  Na7400  1  0.80000000  0.70000000  0.16666667  1
  Na  Na7401  1  0.80000000  0.70000000  0.36666667  1
  Na  Na7402  1  0.80000000  0.70000000  0.56666667  1
  Na  Na7403  1  0.80000000  0.70000000  0.76666667  1
  Na  Na7404  1  0.80000000  0.70000000  0.96666667  1
  Na  Na7405  1  0.80000000  0.90000000  0.16666667  1
  Na  Na7406  1  0.80000000  0.90000000  0.36666667  1
  Na  Na7407  1  0.80000000  0.90000000  0.56666667  1
  Na  Na7408  1  0.80000000  0.90000000  0.76666667  1
  Na  Na7409  1  0.80000000  0.90000000  0.96666667  1
  Na  Na7410  1  0.00000000  0.16666667  0.03333333  1
  Na  Na7411  1  0.00000000  0.16666667  0.23333333  1
  Na  Na7412  1  0.00000000  0.16666667  0.43333333  1
  Na  Na7413  1  0.00000000  0.16666667  0.63333333  1
  Na  Na7414  1  0.00000000  0.16666667  0.83333333  1
  Na  Na7415  1  0.00000000  0.36666667  0.03333333  1
  Na  Na7416  1  0.00000000  0.36666667  0.23333333  1
  Na  Na7417  1  0.00000000  0.36666667  0.43333333  1
  Na  Na7418  1  0.00000000  0.36666667  0.63333333  1
  Na  Na7419  1  0.00000000  0.36666667  0.83333333  1
  Na  Na7420  1  0.00000000  0.56666667  0.03333333  1
  Na  Na7421  1  0.00000000  0.56666667  0.23333333  1
  Na  Na7422  1  0.00000000  0.56666667  0.43333333  1
  Na  Na7423  1  0.00000000  0.56666667  0.63333333  1
  Na  Na7424  1  0.00000000  0.56666667  0.83333333  1
  Na  Na7425  1  0.00000000  0.76666667  0.03333333  1
  Na  Na7426  1  0.00000000  0.76666667  0.23333333  1
  Na  Na7427  1  0.00000000  0.76666667  0.43333333  1
  Na  Na7428  1  0.00000000  0.76666667  0.63333333  1
  Na  Na7429  1  0.00000000  0.76666667  0.83333333  1
  Na  Na7430  1  0.00000000  0.96666667  0.03333333  1
  Na  Na7431  1  0.00000000  0.96666667  0.23333333  1
  Na  Na7432  1  0.00000000  0.96666667  0.43333333  1
  Na  Na7433  1  0.00000000  0.96666667  0.63333333  1
  Na  Na7434  1  0.00000000  0.96666667  0.83333333  1
  Na  Na7435  1  0.20000000  0.16666667  0.03333333  1
  Na  Na7436  1  0.20000000  0.16666667  0.23333333  1
  Na  Na7437  1  0.20000000  0.16666667  0.43333333  1
  Na  Na7438  1  0.20000000  0.16666667  0.63333333  1
  Na  Na7439  1  0.20000000  0.16666667  0.83333333  1
  Na  Na7440  1  0.20000000  0.36666667  0.03333333  1
  Na  Na7441  1  0.20000000  0.36666667  0.23333333  1
  Na  Na7442  1  0.20000000  0.36666667  0.63333333  1
  Na  Na7443  1  0.20000000  0.36666667  0.83333333  1
  Na  Na7444  1  0.20000000  0.56666667  0.03333333  1
  Na  Na7445  1  0.20000000  0.56666667  0.23333333  1
  Na  Na7446  1  0.20000000  0.56666667  0.43333333  1
  Na  Na7447  1  0.20000000  0.56666667  0.63333333  1
  Na  Na7448  1  0.20000000  0.56666667  0.83333333  1
  Na  Na7449  1  0.20000000  0.76666667  0.03333333  1
  Na  Na7450  1  0.20000000  0.76666667  0.23333333  1
  Na  Na7451  1  0.20000000  0.76666667  0.43333333  1
  Na  Na7452  1  0.20000000  0.76666667  0.63333333  1
  Na  Na7453  1  0.20000000  0.76666667  0.83333333  1
  Na  Na7454  1  0.20000000  0.96666667  0.03333333  1
  Na  Na7455  1  0.20000000  0.96666667  0.23333333  1
  Na  Na7456  1  0.20000000  0.96666667  0.43333333  1
  Na  Na7457  1  0.20000000  0.96666667  0.63333333  1
  Na  Na7458  1  0.20000000  0.96666667  0.83333333  1
  Na  Na7459  1  0.40000000  0.16666667  0.03333333  1
  Na  Na7460  1  0.40000000  0.16666667  0.23333333  1
  Na  Na7461  1  0.40000000  0.16666667  0.43333333  1
  Na  Na7462  1  0.40000000  0.16666667  0.63333333  1
  Na  Na7463  1  0.40000000  0.16666667  0.83333333  1
  Na  Na7464  1  0.40000000  0.36666667  0.03333333  1
  Na  Na7465  1  0.40000000  0.36666667  0.23333333  1
  Na  Na7466  1  0.40000000  0.36666667  0.43333333  1
  Na  Na7467  1  0.40000000  0.36666667  0.63333333  1
  Na  Na7468  1  0.40000000  0.36666667  0.83333333  1
  Na  Na7469  1  0.40000000  0.56666667  0.03333333  1
  Na  Na7470  1  0.40000000  0.56666667  0.23333333  1
  Na  Na7471  1  0.40000000  0.56666667  0.43333333  1
  Na  Na7472  1  0.40000000  0.56666667  0.63333333  1
  Na  Na7473  1  0.40000000  0.56666667  0.83333333  1
  Na  Na7474  1  0.40000000  0.76666667  0.03333333  1
  Na  Na7475  1  0.40000000  0.76666667  0.23333333  1
  Na  Na7476  1  0.40000000  0.76666667  0.43333333  1
  Na  Na7477  1  0.40000000  0.76666667  0.63333333  1
  Na  Na7478  1  0.40000000  0.76666667  0.83333333  1
  Na  Na7479  1  0.40000000  0.96666667  0.03333333  1
  Na  Na7480  1  0.40000000  0.96666667  0.23333333  1
  Na  Na7481  1  0.40000000  0.96666667  0.43333333  1
  Na  Na7482  1  0.40000000  0.96666667  0.63333333  1
  Na  Na7483  1  0.40000000  0.96666667  0.83333333  1
  Na  Na7484  1  0.60000000  0.16666667  0.03333333  1
  Na  Na7485  1  0.60000000  0.16666667  0.23333333  1
  Na  Na7486  1  0.60000000  0.16666667  0.43333333  1
  Na  Na7487  1  0.60000000  0.16666667  0.63333333  1
  Na  Na7488  1  0.60000000  0.16666667  0.83333333  1
  Na  Na7489  1  0.60000000  0.36666667  0.03333333  1
  Na  Na7490  1  0.60000000  0.36666667  0.23333333  1
  Na  Na7491  1  0.60000000  0.36666667  0.43333333  1
  Na  Na7492  1  0.60000000  0.36666667  0.63333333  1
  Na  Na7493  1  0.60000000  0.36666667  0.83333333  1
  Na  Na7494  1  0.60000000  0.56666667  0.03333333  1
  Na  Na7495  1  0.60000000  0.56666667  0.23333333  1
  Na  Na7496  1  0.60000000  0.56666667  0.43333333  1
  Na  Na7497  1  0.60000000  0.56666667  0.63333333  1
  Na  Na7498  1  0.60000000  0.56666667  0.83333333  1
  Na  Na7499  1  0.60000000  0.76666667  0.03333333  1
  Na  Na7500  1  0.60000000  0.76666667  0.23333333  1
  Na  Na7501  1  0.60000000  0.76666667  0.43333333  1
  Na  Na7502  1  0.60000000  0.76666667  0.63333333  1
  Na  Na7503  1  0.60000000  0.76666667  0.83333333  1
  Na  Na7504  1  0.60000000  0.96666667  0.03333333  1
  Na  Na7505  1  0.60000000  0.96666667  0.23333333  1
  Na  Na7506  1  0.60000000  0.96666667  0.43333333  1
  Na  Na7507  1  0.60000000  0.96666667  0.63333333  1
  Na  Na7508  1  0.60000000  0.96666667  0.83333333  1
  Na  Na7509  1  0.80000000  0.16666667  0.03333333  1
  Na  Na7510  1  0.80000000  0.16666667  0.23333333  1
  Na  Na7511  1  0.80000000  0.16666667  0.43333333  1
  Na  Na7512  1  0.80000000  0.16666667  0.63333333  1
  Na  Na7513  1  0.80000000  0.16666667  0.83333333  1
  Na  Na7514  1  0.80000000  0.36666667  0.03333333  1
  Na  Na7515  1  0.80000000  0.36666667  0.23333333  1
  Na  Na7516  1  0.80000000  0.36666667  0.43333333  1
  Na  Na7517  1  0.80000000  0.36666667  0.63333333  1
  Na  Na7518  1  0.80000000  0.36666667  0.83333333  1
  Na  Na7519  1  0.80000000  0.56666667  0.03333333  1
  Na  Na7520  1  0.80000000  0.56666667  0.23333333  1
  Na  Na7521  1  0.80000000  0.56666667  0.43333333  1
  Na  Na7522  1  0.80000000  0.56666667  0.63333333  1
  Na  Na7523  1  0.80000000  0.56666667  0.83333333  1
  Na  Na7524  1  0.80000000  0.76666667  0.03333333  1
  Na  Na7525  1  0.80000000  0.76666667  0.23333333  1
  Na  Na7526  1  0.80000000  0.76666667  0.43333333  1
  Na  Na7527  1  0.80000000  0.76666667  0.63333333  1
  Na  Na7528  1  0.80000000  0.76666667  0.83333333  1
  Na  Na7529  1  0.80000000  0.96666667  0.03333333  1
  Na  Na7530  1  0.80000000  0.96666667  0.23333333  1
  Na  Na7531  1  0.80000000  0.96666667  0.43333333  1
  Na  Na7532  1  0.80000000  0.96666667  0.63333333  1
  Na  Na7533  1  0.80000000  0.96666667  0.83333333  1
  Na  Na7534  1  0.00000000  0.16666667  0.10000000  1
  Na  Na7535  1  0.00000000  0.16666667  0.30000000  1
  Na  Na7536  1  0.00000000  0.16666667  0.50000000  1
  Na  Na7537  1  0.00000000  0.16666667  0.70000000  1
  Na  Na7538  1  0.00000000  0.16666667  0.90000000  1
  Na  Na7539  1  0.00000000  0.36666667  0.10000000  1
  Na  Na7540  1  0.00000000  0.36666667  0.30000000  1
  Na  Na7541  1  0.00000000  0.36666667  0.50000000  1
  Na  Na7542  1  0.00000000  0.36666667  0.70000000  1
  Na  Na7543  1  0.00000000  0.36666667  0.90000000  1
  Na  Na7544  1  0.00000000  0.56666667  0.10000000  1
  Na  Na7545  1  0.00000000  0.56666667  0.30000000  1
  Na  Na7546  1  0.00000000  0.56666667  0.50000000  1
  Na  Na7547  1  0.00000000  0.76666667  0.10000000  1
  Na  Na7548  1  0.00000000  0.76666667  0.30000000  1
  Na  Na7549  1  0.00000000  0.76666667  0.50000000  1
  Na  Na7550  1  0.00000000  0.76666667  0.70000000  1
  Na  Na7551  1  0.00000000  0.76666667  0.90000000  1
  Na  Na7552  1  0.00000000  0.96666667  0.10000000  1
  Na  Na7553  1  0.00000000  0.96666667  0.30000000  1
  Na  Na7554  1  0.00000000  0.96666667  0.50000000  1
  Na  Na7555  1  0.00000000  0.96666667  0.70000000  1
  Na  Na7556  1  0.00000000  0.96666667  0.90000000  1
  Na  Na7557  1  0.20000000  0.16666667  0.10000000  1
  Na  Na7558  1  0.20000000  0.16666667  0.30000000  1
  Na  Na7559  1  0.20000000  0.16666667  0.50000000  1
  Na  Na7560  1  0.20000000  0.16666667  0.70000000  1
  Na  Na7561  1  0.20000000  0.16666667  0.90000000  1
  Na  Na7562  1  0.20000000  0.36666667  0.10000000  1
  Na  Na7563  1  0.20000000  0.36666667  0.30000000  1
  Na  Na7564  1  0.20000000  0.36666667  0.50000000  1
  Na  Na7565  1  0.20000000  0.36666667  0.70000000  1
  Na  Na7566  1  0.20000000  0.36666667  0.90000000  1
  Na  Na7567  1  0.20000000  0.56666667  0.10000000  1
  Na  Na7568  1  0.20000000  0.56666667  0.30000000  1
  Na  Na7569  1  0.20000000  0.56666667  0.50000000  1
  Na  Na7570  1  0.20000000  0.56666667  0.70000000  1
  Na  Na7571  1  0.20000000  0.56666667  0.90000000  1
  Na  Na7572  1  0.20000000  0.76666667  0.10000000  1
  Na  Na7573  1  0.20000000  0.76666667  0.30000000  1
  Na  Na7574  1  0.20000000  0.76666667  0.50000000  1
  Na  Na7575  1  0.20000000  0.76666667  0.70000000  1
  Na  Na7576  1  0.20000000  0.76666667  0.90000000  1
  Na  Na7577  1  0.20000000  0.96666667  0.10000000  1
  Na  Na7578  1  0.20000000  0.96666667  0.30000000  1
  Na  Na7579  1  0.20000000  0.96666667  0.50000000  1
  Na  Na7580  1  0.20000000  0.96666667  0.70000000  1
  Na  Na7581  1  0.20000000  0.96666667  0.90000000  1
  Na  Na7582  1  0.40000000  0.16666667  0.10000000  1
  Na  Na7583  1  0.40000000  0.16666667  0.30000000  1
  Na  Na7584  1  0.40000000  0.16666667  0.50000000  1
  Na  Na7585  1  0.40000000  0.16666667  0.70000000  1
  Na  Na7586  1  0.40000000  0.16666667  0.90000000  1
  Na  Na7587  1  0.40000000  0.36666667  0.10000000  1
  Na  Na7588  1  0.40000000  0.36666667  0.30000000  1
  Na  Na7589  1  0.40000000  0.36666667  0.50000000  1
  Na  Na7590  1  0.40000000  0.36666667  0.70000000  1
  Na  Na7591  1  0.40000000  0.36666667  0.90000000  1
  Na  Na7592  1  0.40000000  0.56666667  0.10000000  1
  Na  Na7593  1  0.40000000  0.56666667  0.30000000  1
  Na  Na7594  1  0.40000000  0.56666667  0.50000000  1
  Na  Na7595  1  0.40000000  0.56666667  0.70000000  1
  Na  Na7596  1  0.40000000  0.56666667  0.90000000  1
  Na  Na7597  1  0.40000000  0.76666667  0.10000000  1
  Na  Na7598  1  0.40000000  0.76666667  0.30000000  1
  Na  Na7599  1  0.40000000  0.76666667  0.50000000  1
  Na  Na7600  1  0.40000000  0.76666667  0.70000000  1
  Na  Na7601  1  0.40000000  0.76666667  0.90000000  1
  Na  Na7602  1  0.40000000  0.96666667  0.10000000  1
  Na  Na7603  1  0.40000000  0.96666667  0.30000000  1
  Na  Na7604  1  0.40000000  0.96666667  0.50000000  1
  Na  Na7605  1  0.40000000  0.96666667  0.70000000  1
  Na  Na7606  1  0.40000000  0.96666667  0.90000000  1
  Na  Na7607  1  0.60000000  0.16666667  0.10000000  1
  Na  Na7608  1  0.60000000  0.16666667  0.30000000  1
  Na  Na7609  1  0.60000000  0.16666667  0.50000000  1
  Na  Na7610  1  0.60000000  0.16666667  0.70000000  1
  Na  Na7611  1  0.60000000  0.16666667  0.90000000  1
  Na  Na7612  1  0.60000000  0.36666667  0.10000000  1
  Na  Na7613  1  0.60000000  0.36666667  0.30000000  1
  Na  Na7614  1  0.60000000  0.36666667  0.50000000  1
  Na  Na7615  1  0.60000000  0.36666667  0.70000000  1
  Na  Na7616  1  0.60000000  0.36666667  0.90000000  1
  Na  Na7617  1  0.60000000  0.56666667  0.10000000  1
  Na  Na7618  1  0.60000000  0.56666667  0.30000000  1
  Na  Na7619  1  0.60000000  0.56666667  0.50000000  1
  Na  Na7620  1  0.60000000  0.56666667  0.70000000  1
  Na  Na7621  1  0.60000000  0.56666667  0.90000000  1
  Na  Na7622  1  0.60000000  0.76666667  0.10000000  1
  Na  Na7623  1  0.60000000  0.76666667  0.30000000  1
  Na  Na7624  1  0.60000000  0.76666667  0.50000000  1
  Na  Na7625  1  0.60000000  0.76666667  0.70000000  1
  Na  Na7626  1  0.60000000  0.76666667  0.90000000  1
  Na  Na7627  1  0.60000000  0.96666667  0.10000000  1
  Na  Na7628  1  0.60000000  0.96666667  0.30000000  1
  Na  Na7629  1  0.60000000  0.96666667  0.50000000  1
  Na  Na7630  1  0.60000000  0.96666667  0.70000000  1
  Na  Na7631  1  0.60000000  0.96666667  0.90000000  1
  Na  Na7632  1  0.80000000  0.16666667  0.10000000  1
  Na  Na7633  1  0.80000000  0.16666667  0.30000000  1
  Na  Na7634  1  0.80000000  0.16666667  0.50000000  1
  Na  Na7635  1  0.80000000  0.16666667  0.70000000  1
  Na  Na7636  1  0.80000000  0.16666667  0.90000000  1
  Na  Na7637  1  0.80000000  0.36666667  0.10000000  1
  Na  Na7638  1  0.80000000  0.36666667  0.30000000  1
  Na  Na7639  1  0.80000000  0.36666667  0.50000000  1
  Na  Na7640  1  0.80000000  0.36666667  0.70000000  1
  Na  Na7641  1  0.80000000  0.36666667  0.90000000  1
  Na  Na7642  1  0.80000000  0.56666667  0.10000000  1
  Na  Na7643  1  0.80000000  0.56666667  0.30000000  1
  Na  Na7644  1  0.80000000  0.56666667  0.50000000  1
  Na  Na7645  1  0.80000000  0.56666667  0.70000000  1
  Na  Na7646  1  0.80000000  0.56666667  0.90000000  1
  Na  Na7647  1  0.80000000  0.76666667  0.10000000  1
  Na  Na7648  1  0.80000000  0.76666667  0.30000000  1
  Na  Na7649  1  0.80000000  0.76666667  0.50000000  1
  Na  Na7650  1  0.80000000  0.76666667  0.90000000  1
  Na  Na7651  1  0.80000000  0.96666667  0.10000000  1
  Na  Na7652  1  0.80000000  0.96666667  0.30000000  1
  Na  Na7653  1  0.80000000  0.96666667  0.50000000  1
  Na  Na7654  1  0.80000000  0.96666667  0.70000000  1
  Na  Na7655  1  0.80000000  0.96666667  0.90000000  1
  Na  Na7656  1  0.00000000  0.16666667  0.16666667  1
  Na  Na7657  1  0.00000000  0.16666667  0.36666667  1
  Na  Na7658  1  0.00000000  0.16666667  0.56666667  1
  Na  Na7659  1  0.00000000  0.16666667  0.76666667  1
  Na  Na7660  1  0.00000000  0.16666667  0.96666667  1
  Na  Na7661  1  0.00000000  0.36666667  0.16666667  1
  Na  Na7662  1  0.00000000  0.36666667  0.36666667  1
  Na  Na7663  1  0.00000000  0.36666667  0.56666667  1
  Na  Na7664  1  0.00000000  0.36666667  0.76666667  1
  Na  Na7665  1  0.00000000  0.36666667  0.96666667  1
  Na  Na7666  1  0.00000000  0.56666667  0.16666667  1
  Na  Na7667  1  0.00000000  0.56666667  0.36666667  1
  Na  Na7668  1  0.00000000  0.56666667  0.56666667  1
  Na  Na7669  1  0.00000000  0.56666667  0.76666667  1
  Na  Na7670  1  0.00000000  0.56666667  0.96666667  1
  Na  Na7671  1  0.00000000  0.76666667  0.16666667  1
  Na  Na7672  1  0.00000000  0.76666667  0.36666667  1
  Na  Na7673  1  0.00000000  0.76666667  0.56666667  1
  Na  Na7674  1  0.00000000  0.76666667  0.76666667  1
  Na  Na7675  1  0.00000000  0.76666667  0.96666667  1
  Na  Na7676  1  0.00000000  0.96666667  0.16666667  1
  Na  Na7677  1  0.00000000  0.96666667  0.36666667  1
  Na  Na7678  1  0.00000000  0.96666667  0.56666667  1
  Na  Na7679  1  0.00000000  0.96666667  0.76666667  1
  Na  Na7680  1  0.00000000  0.96666667  0.96666667  1
  Na  Na7681  1  0.20000000  0.16666667  0.16666667  1
  Na  Na7682  1  0.20000000  0.16666667  0.36666667  1
  Na  Na7683  1  0.20000000  0.16666667  0.56666667  1
  Na  Na7684  1  0.20000000  0.16666667  0.76666667  1
  Na  Na7685  1  0.20000000  0.16666667  0.96666667  1
  Na  Na7686  1  0.20000000  0.36666667  0.16666667  1
  Na  Na7687  1  0.20000000  0.36666667  0.36666667  1
  Na  Na7688  1  0.20000000  0.36666667  0.56666667  1
  Na  Na7689  1  0.20000000  0.36666667  0.76666667  1
  Na  Na7690  1  0.20000000  0.36666667  0.96666667  1
  Na  Na7691  1  0.20000000  0.56666667  0.16666667  1
  Na  Na7692  1  0.20000000  0.56666667  0.36666667  1
  Na  Na7693  1  0.20000000  0.56666667  0.56666667  1
  Na  Na7694  1  0.20000000  0.56666667  0.76666667  1
  Na  Na7695  1  0.20000000  0.56666667  0.96666667  1
  Na  Na7696  1  0.20000000  0.76666667  0.16666667  1
  Na  Na7697  1  0.20000000  0.76666667  0.36666667  1
  Na  Na7698  1  0.20000000  0.76666667  0.56666667  1
  Na  Na7699  1  0.20000000  0.76666667  0.76666667  1
  Na  Na7700  1  0.20000000  0.76666667  0.96666667  1
  Na  Na7701  1  0.20000000  0.96666667  0.16666667  1
  Na  Na7702  1  0.20000000  0.96666667  0.36666667  1
  Na  Na7703  1  0.20000000  0.96666667  0.56666667  1
  Na  Na7704  1  0.20000000  0.96666667  0.76666667  1
  Na  Na7705  1  0.20000000  0.96666667  0.96666667  1
  Na  Na7706  1  0.40000000  0.16666667  0.16666667  1
  Na  Na7707  1  0.40000000  0.16666667  0.36666667  1
  Na  Na7708  1  0.40000000  0.16666667  0.56666667  1
  Na  Na7709  1  0.40000000  0.16666667  0.76666667  1
  Na  Na7710  1  0.40000000  0.16666667  0.96666667  1
  Na  Na7711  1  0.40000000  0.36666667  0.16666667  1
  Na  Na7712  1  0.40000000  0.36666667  0.36666667  1
  Na  Na7713  1  0.40000000  0.36666667  0.56666667  1
  Na  Na7714  1  0.40000000  0.36666667  0.76666667  1
  Na  Na7715  1  0.40000000  0.36666667  0.96666667  1
  Na  Na7716  1  0.40000000  0.56666667  0.16666667  1
  Na  Na7717  1  0.40000000  0.56666667  0.36666667  1
  Na  Na7718  1  0.40000000  0.56666667  0.56666667  1
  Na  Na7719  1  0.40000000  0.56666667  0.76666667  1
  Na  Na7720  1  0.40000000  0.56666667  0.96666667  1
  Na  Na7721  1  0.40000000  0.76666667  0.16666667  1
  Na  Na7722  1  0.40000000  0.76666667  0.36666667  1
  Na  Na7723  1  0.40000000  0.76666667  0.56666667  1
  Na  Na7724  1  0.40000000  0.76666667  0.76666667  1
  Na  Na7725  1  0.40000000  0.76666667  0.96666667  1
  Na  Na7726  1  0.40000000  0.96666667  0.16666667  1
  Na  Na7727  1  0.40000000  0.96666667  0.36666667  1
  Na  Na7728  1  0.40000000  0.96666667  0.56666667  1
  Na  Na7729  1  0.40000000  0.96666667  0.76666667  1
  Na  Na7730  1  0.40000000  0.96666667  0.96666667  1
  Na  Na7731  1  0.60000000  0.16666667  0.16666667  1
  Na  Na7732  1  0.60000000  0.16666667  0.36666667  1
  Na  Na7733  1  0.60000000  0.16666667  0.56666667  1
  Na  Na7734  1  0.60000000  0.16666667  0.76666667  1
  Na  Na7735  1  0.60000000  0.16666667  0.96666667  1
  Na  Na7736  1  0.60000000  0.36666667  0.16666667  1
  Na  Na7737  1  0.60000000  0.36666667  0.36666667  1
  Na  Na7738  1  0.60000000  0.36666667  0.56666667  1
  Na  Na7739  1  0.60000000  0.36666667  0.76666667  1
  Na  Na7740  1  0.60000000  0.36666667  0.96666667  1
  Na  Na7741  1  0.60000000  0.56666667  0.16666667  1
  Na  Na7742  1  0.60000000  0.56666667  0.36666667  1
  Na  Na7743  1  0.60000000  0.56666667  0.56666667  1
  Na  Na7744  1  0.60000000  0.56666667  0.76666667  1
  Na  Na7745  1  0.60000000  0.56666667  0.96666667  1
  Na  Na7746  1  0.60000000  0.76666667  0.16666667  1
  Na  Na7747  1  0.60000000  0.76666667  0.36666667  1
  Na  Na7748  1  0.60000000  0.76666667  0.56666667  1
  Na  Na7749  1  0.60000000  0.76666667  0.76666667  1
  Na  Na7750  1  0.60000000  0.76666667  0.96666667  1
  Na  Na7751  1  0.60000000  0.96666667  0.16666667  1
  Na  Na7752  1  0.60000000  0.96666667  0.36666667  1
  Na  Na7753  1  0.60000000  0.96666667  0.56666667  1
  Na  Na7754  1  0.60000000  0.96666667  0.76666667  1
  Na  Na7755  1  0.60000000  0.96666667  0.96666667  1
  Na  Na7756  1  0.80000000  0.16666667  0.16666667  1
  Na  Na7757  1  0.80000000  0.16666667  0.36666667  1
  Na  Na7758  1  0.80000000  0.16666667  0.56666667  1
  Na  Na7759  1  0.80000000  0.16666667  0.76666667  1
  Na  Na7760  1  0.80000000  0.16666667  0.96666667  1
  Na  Na7761  1  0.80000000  0.36666667  0.16666667  1
  Na  Na7762  1  0.80000000  0.36666667  0.36666667  1
  Na  Na7763  1  0.80000000  0.36666667  0.56666667  1
  Na  Na7764  1  0.80000000  0.36666667  0.76666667  1
  Na  Na7765  1  0.80000000  0.36666667  0.96666667  1
  Na  Na7766  1  0.80000000  0.56666667  0.16666667  1
  Na  Na7767  1  0.80000000  0.56666667  0.36666667  1
  Na  Na7768  1  0.80000000  0.56666667  0.56666667  1
  Na  Na7769  1  0.80000000  0.56666667  0.76666667  1
  Na  Na7770  1  0.80000000  0.56666667  0.96666667  1
  Na  Na7771  1  0.80000000  0.76666667  0.16666667  1
  Na  Na7772  1  0.80000000  0.76666667  0.36666667  1
  Na  Na7773  1  0.80000000  0.76666667  0.56666667  1
  Na  Na7774  1  0.80000000  0.76666667  0.76666667  1
  Na  Na7775  1  0.80000000  0.76666667  0.96666667  1
  Na  Na7776  1  0.80000000  0.96666667  0.16666667  1
  Na  Na7777  1  0.80000000  0.96666667  0.36666667  1
  Na  Na7778  1  0.80000000  0.96666667  0.56666667  1
  Na  Na7779  1  0.80000000  0.96666667  0.76666667  1
  Na  Na7780  1  0.80000000  0.96666667  0.96666667  1
  Na  Na7781  1  0.06666667  0.03333333  0.03333333  1
  Na  Na7782  1  0.06666667  0.03333333  0.23333333  1
  Na  Na7783  1  0.06666667  0.03333333  0.43333333  1
  Na  Na7784  1  0.06666667  0.03333333  0.63333333  1
  Na  Na7785  1  0.06666667  0.03333333  0.83333333  1
  Na  Na7786  1  0.06666667  0.23333333  0.03333333  1
  Na  Na7787  1  0.06666667  0.23333333  0.23333333  1
  Na  Na7788  1  0.06666667  0.23333333  0.43333333  1
  Na  Na7789  1  0.06666667  0.23333333  0.63333333  1
  Na  Na7790  1  0.06666667  0.23333333  0.83333333  1
  Na  Na7791  1  0.06666667  0.43333333  0.03333333  1
  Na  Na7792  1  0.06666667  0.43333333  0.23333333  1
  Na  Na7793  1  0.06666667  0.43333333  0.43333333  1
  Na  Na7794  1  0.06666667  0.43333333  0.63333333  1
  Na  Na7795  1  0.06666667  0.43333333  0.83333333  1
  Na  Na7796  1  0.06666667  0.63333333  0.03333333  1
  Na  Na7797  1  0.06666667  0.63333333  0.23333333  1
  Na  Na7798  1  0.06666667  0.63333333  0.43333333  1
  Na  Na7799  1  0.06666667  0.63333333  0.63333333  1
  Na  Na7800  1  0.06666667  0.63333333  0.83333333  1
  Na  Na7801  1  0.06666667  0.83333333  0.03333333  1
  Na  Na7802  1  0.06666667  0.83333333  0.23333333  1
  Na  Na7803  1  0.06666667  0.83333333  0.43333333  1
  Na  Na7804  1  0.06666667  0.83333333  0.63333333  1
  Na  Na7805  1  0.06666667  0.83333333  0.83333333  1
  Na  Na7806  1  0.26666667  0.03333333  0.03333333  1
  Na  Na7807  1  0.26666667  0.03333333  0.23333333  1
  Na  Na7808  1  0.26666667  0.03333333  0.43333333  1
  Na  Na7809  1  0.26666667  0.03333333  0.63333333  1
  Na  Na7810  1  0.26666667  0.03333333  0.83333333  1
  Na  Na7811  1  0.26666667  0.23333333  0.03333333  1
  Na  Na7812  1  0.26666667  0.23333333  0.23333333  1
  Na  Na7813  1  0.26666667  0.23333333  0.43333333  1
  Na  Na7814  1  0.26666667  0.23333333  0.63333333  1
  Na  Na7815  1  0.26666667  0.23333333  0.83333333  1
  Na  Na7816  1  0.26666667  0.43333333  0.03333333  1
  Na  Na7817  1  0.26666667  0.43333333  0.23333333  1
  Na  Na7818  1  0.26666667  0.43333333  0.43333333  1
  Na  Na7819  1  0.26666667  0.43333333  0.63333333  1
  Na  Na7820  1  0.26666667  0.43333333  0.83333333  1
  Na  Na7821  1  0.26666667  0.63333333  0.03333333  1
  Na  Na7822  1  0.26666667  0.63333333  0.23333333  1
  Na  Na7823  1  0.26666667  0.63333333  0.43333333  1
  Na  Na7824  1  0.26666667  0.63333333  0.63333333  1
  Na  Na7825  1  0.26666667  0.63333333  0.83333333  1
  Na  Na7826  1  0.26666667  0.83333333  0.03333333  1
  Na  Na7827  1  0.26666667  0.83333333  0.23333333  1
  Na  Na7828  1  0.26666667  0.83333333  0.43333333  1
  Na  Na7829  1  0.26666667  0.83333333  0.63333333  1
  Na  Na7830  1  0.26666667  0.83333333  0.83333333  1
  Na  Na7831  1  0.46666667  0.03333333  0.03333333  1
  Na  Na7832  1  0.46666667  0.03333333  0.23333333  1
  Na  Na7833  1  0.46666667  0.03333333  0.43333333  1
  Na  Na7834  1  0.46666667  0.03333333  0.63333333  1
  Na  Na7835  1  0.46666667  0.03333333  0.83333333  1
  Na  Na7836  1  0.46666667  0.23333333  0.03333333  1
  Na  Na7837  1  0.46666667  0.23333333  0.43333333  1
  Na  Na7838  1  0.46666667  0.23333333  0.63333333  1
  Na  Na7839  1  0.46666667  0.23333333  0.83333333  1
  Na  Na7840  1  0.46666667  0.43333333  0.03333333  1
  Na  Na7841  1  0.46666667  0.43333333  0.23333333  1
  Na  Na7842  1  0.46666667  0.43333333  0.43333333  1
  Na  Na7843  1  0.46666667  0.43333333  0.63333333  1
  Na  Na7844  1  0.46666667  0.43333333  0.83333333  1
  Na  Na7845  1  0.46666667  0.63333333  0.03333333  1
  Na  Na7846  1  0.46666667  0.63333333  0.23333333  1
  Na  Na7847  1  0.46666667  0.63333333  0.43333333  1
  Na  Na7848  1  0.46666667  0.63333333  0.63333333  1
  Na  Na7849  1  0.46666667  0.63333333  0.83333333  1
  Na  Na7850  1  0.46666667  0.83333333  0.03333333  1
  Na  Na7851  1  0.46666667  0.83333333  0.23333333  1
  Na  Na7852  1  0.46666667  0.83333333  0.43333333  1
  Na  Na7853  1  0.46666667  0.83333333  0.63333333  1
  Na  Na7854  1  0.46666667  0.83333333  0.83333333  1
  Na  Na7855  1  0.66666667  0.03333333  0.03333333  1
  Na  Na7856  1  0.66666667  0.03333333  0.23333333  1
  Na  Na7857  1  0.66666667  0.03333333  0.43333333  1
  Na  Na7858  1  0.66666667  0.03333333  0.63333333  1
  Na  Na7859  1  0.66666667  0.03333333  0.83333333  1
  Na  Na7860  1  0.66666667  0.23333333  0.03333333  1
  Na  Na7861  1  0.66666667  0.23333333  0.23333333  1
  Na  Na7862  1  0.66666667  0.23333333  0.43333333  1
  Na  Na7863  1  0.66666667  0.23333333  0.63333333  1
  Na  Na7864  1  0.66666667  0.23333333  0.83333333  1
  Na  Na7865  1  0.66666667  0.43333333  0.03333333  1
  Na  Na7866  1  0.66666667  0.43333333  0.23333333  1
  Na  Na7867  1  0.66666667  0.43333333  0.43333333  1
  Na  Na7868  1  0.66666667  0.43333333  0.63333333  1
  Na  Na7869  1  0.66666667  0.43333333  0.83333333  1
  Na  Na7870  1  0.66666667  0.63333333  0.03333333  1
  Na  Na7871  1  0.66666667  0.63333333  0.23333333  1
  Na  Na7872  1  0.66666667  0.63333333  0.43333333  1
  Na  Na7873  1  0.66666667  0.63333333  0.63333333  1
  Na  Na7874  1  0.66666667  0.63333333  0.83333333  1
  Na  Na7875  1  0.66666667  0.83333333  0.03333333  1
  Na  Na7876  1  0.66666667  0.83333333  0.23333333  1
  Na  Na7877  1  0.66666667  0.83333333  0.43333333  1
  Na  Na7878  1  0.66666667  0.83333333  0.63333333  1
  Na  Na7879  1  0.66666667  0.83333333  0.83333333  1
  Na  Na7880  1  0.86666667  0.03333333  0.03333333  1
  Na  Na7881  1  0.86666667  0.03333333  0.23333333  1
  Na  Na7882  1  0.86666667  0.03333333  0.43333333  1
  Na  Na7883  1  0.86666667  0.03333333  0.63333333  1
  Na  Na7884  1  0.86666667  0.03333333  0.83333333  1
  Na  Na7885  1  0.86666667  0.23333333  0.03333333  1
  Na  Na7886  1  0.86666667  0.23333333  0.23333333  1
  Na  Na7887  1  0.86666667  0.23333333  0.43333333  1
  Na  Na7888  1  0.86666667  0.23333333  0.63333333  1
  Na  Na7889  1  0.86666667  0.43333333  0.03333333  1
  Na  Na7890  1  0.86666667  0.43333333  0.23333333  1
  Na  Na7891  1  0.86666667  0.43333333  0.43333333  1
  Na  Na7892  1  0.86666667  0.43333333  0.63333333  1
  Na  Na7893  1  0.86666667  0.43333333  0.83333333  1
  Na  Na7894  1  0.86666667  0.63333333  0.03333333  1
  Na  Na7895  1  0.86666667  0.63333333  0.23333333  1
  Na  Na7896  1  0.86666667  0.63333333  0.43333333  1
  Na  Na7897  1  0.86666667  0.63333333  0.63333333  1
  Na  Na7898  1  0.86666667  0.63333333  0.83333333  1
  Na  Na7899  1  0.86666667  0.83333333  0.03333333  1
  Na  Na7900  1  0.86666667  0.83333333  0.23333333  1
  Na  Na7901  1  0.86666667  0.83333333  0.43333333  1
  Na  Na7902  1  0.86666667  0.83333333  0.63333333  1
  Na  Na7903  1  0.86666667  0.83333333  0.83333333  1
  Na  Na7904  1  0.06666667  0.03333333  0.10000000  1
  Na  Na7905  1  0.06666667  0.03333333  0.30000000  1
  Na  Na7906  1  0.06666667  0.03333333  0.50000000  1
  Na  Na7907  1  0.06666667  0.03333333  0.70000000  1
  Na  Na7908  1  0.06666667  0.03333333  0.90000000  1
  Na  Na7909  1  0.06666667  0.23333333  0.10000000  1
  Na  Na7910  1  0.06666667  0.23333333  0.30000000  1
  Na  Na7911  1  0.06666667  0.23333333  0.50000000  1
  Na  Na7912  1  0.06666667  0.23333333  0.70000000  1
  Na  Na7913  1  0.06666667  0.23333333  0.90000000  1
  Na  Na7914  1  0.06666667  0.43333333  0.10000000  1
  Na  Na7915  1  0.06666667  0.43333333  0.30000000  1
  Na  Na7916  1  0.06666667  0.43333333  0.50000000  1
  Na  Na7917  1  0.06666667  0.43333333  0.70000000  1
  Na  Na7918  1  0.06666667  0.43333333  0.90000000  1
  Na  Na7919  1  0.06666667  0.63333333  0.10000000  1
  Na  Na7920  1  0.06666667  0.63333333  0.30000000  1
  Na  Na7921  1  0.06666667  0.63333333  0.50000000  1
  Na  Na7922  1  0.06666667  0.63333333  0.70000000  1
  Na  Na7923  1  0.06666667  0.63333333  0.90000000  1
  Na  Na7924  1  0.06666667  0.83333333  0.10000000  1
  Na  Na7925  1  0.06666667  0.83333333  0.30000000  1
  Na  Na7926  1  0.06666667  0.83333333  0.50000000  1
  Na  Na7927  1  0.06666667  0.83333333  0.70000000  1
  Na  Na7928  1  0.06666667  0.83333333  0.90000000  1
  Na  Na7929  1  0.26666667  0.03333333  0.10000000  1
  Na  Na7930  1  0.26666667  0.03333333  0.30000000  1
  Na  Na7931  1  0.26666667  0.03333333  0.50000000  1
  Na  Na7932  1  0.26666667  0.03333333  0.70000000  1
  Na  Na7933  1  0.26666667  0.03333333  0.90000000  1
  Na  Na7934  1  0.26666667  0.23333333  0.10000000  1
  Na  Na7935  1  0.26666667  0.23333333  0.30000000  1
  Na  Na7936  1  0.26666667  0.23333333  0.50000000  1
  Na  Na7937  1  0.26666667  0.23333333  0.70000000  1
  Na  Na7938  1  0.26666667  0.23333333  0.90000000  1
  Na  Na7939  1  0.26666667  0.43333333  0.10000000  1
  Na  Na7940  1  0.26666667  0.43333333  0.30000000  1
  Na  Na7941  1  0.26666667  0.43333333  0.50000000  1
  Na  Na7942  1  0.26666667  0.43333333  0.70000000  1
  Na  Na7943  1  0.26666667  0.43333333  0.90000000  1
  Na  Na7944  1  0.26666667  0.63333333  0.10000000  1
  Na  Na7945  1  0.26666667  0.63333333  0.30000000  1
  Na  Na7946  1  0.26666667  0.63333333  0.50000000  1
  Na  Na7947  1  0.26666667  0.63333333  0.70000000  1
  Na  Na7948  1  0.26666667  0.63333333  0.90000000  1
  Na  Na7949  1  0.26666667  0.83333333  0.10000000  1
  Na  Na7950  1  0.26666667  0.83333333  0.30000000  1
  Na  Na7951  1  0.26666667  0.83333333  0.50000000  1
  Na  Na7952  1  0.26666667  0.83333333  0.70000000  1
  Na  Na7953  1  0.26666667  0.83333333  0.90000000  1
  Na  Na7954  1  0.46666667  0.03333333  0.10000000  1
  Na  Na7955  1  0.46666667  0.03333333  0.30000000  1
  Na  Na7956  1  0.46666667  0.03333333  0.50000000  1
  Na  Na7957  1  0.46666667  0.03333333  0.70000000  1
  Na  Na7958  1  0.46666667  0.03333333  0.90000000  1
  Na  Na7959  1  0.46666667  0.23333333  0.10000000  1
  Na  Na7960  1  0.46666667  0.23333333  0.30000000  1
  Na  Na7961  1  0.46666667  0.23333333  0.50000000  1
  Na  Na7962  1  0.46666667  0.23333333  0.70000000  1
  Na  Na7963  1  0.46666667  0.23333333  0.90000000  1
  Na  Na7964  1  0.46666667  0.43333333  0.10000000  1
  Na  Na7965  1  0.46666667  0.43333333  0.30000000  1
  Na  Na7966  1  0.46666667  0.43333333  0.50000000  1
  Na  Na7967  1  0.46666667  0.43333333  0.70000000  1
  Na  Na7968  1  0.46666667  0.43333333  0.90000000  1
  Na  Na7969  1  0.46666667  0.63333333  0.10000000  1
  Na  Na7970  1  0.46666667  0.63333333  0.30000000  1
  Na  Na7971  1  0.46666667  0.63333333  0.50000000  1
  Na  Na7972  1  0.46666667  0.63333333  0.70000000  1
  Na  Na7973  1  0.46666667  0.63333333  0.90000000  1
  Na  Na7974  1  0.46666667  0.83333333  0.10000000  1
  Na  Na7975  1  0.46666667  0.83333333  0.30000000  1
  Na  Na7976  1  0.46666667  0.83333333  0.50000000  1
  Na  Na7977  1  0.46666667  0.83333333  0.70000000  1
  Na  Na7978  1  0.46666667  0.83333333  0.90000000  1
  Na  Na7979  1  0.66666667  0.03333333  0.10000000  1
  Na  Na7980  1  0.66666667  0.03333333  0.30000000  1
  Na  Na7981  1  0.66666667  0.03333333  0.50000000  1
  Na  Na7982  1  0.66666667  0.03333333  0.70000000  1
  Na  Na7983  1  0.66666667  0.03333333  0.90000000  1
  Na  Na7984  1  0.66666667  0.23333333  0.10000000  1
  Na  Na7985  1  0.66666667  0.23333333  0.30000000  1
  Na  Na7986  1  0.66666667  0.23333333  0.50000000  1
  Na  Na7987  1  0.66666667  0.23333333  0.70000000  1
  Na  Na7988  1  0.66666667  0.23333333  0.90000000  1
  Na  Na7989  1  0.66666667  0.43333333  0.10000000  1
  Na  Na7990  1  0.66666667  0.43333333  0.30000000  1
  Na  Na7991  1  0.66666667  0.43333333  0.50000000  1
  Na  Na7992  1  0.66666667  0.43333333  0.70000000  1
  Na  Na7993  1  0.66666667  0.43333333  0.90000000  1
  Na  Na7994  1  0.66666667  0.63333333  0.10000000  1
  Na  Na7995  1  0.66666667  0.63333333  0.30000000  1
  Na  Na7996  1  0.66666667  0.63333333  0.50000000  1
  Na  Na7997  1  0.66666667  0.63333333  0.70000000  1
  Na  Na7998  1  0.66666667  0.63333333  0.90000000  1
  Na  Na7999  1  0.66666667  0.83333333  0.10000000  1
  Na  Na8000  1  0.66666667  0.83333333  0.30000000  1
  Na  Na8001  1  0.66666667  0.83333333  0.50000000  1
  Na  Na8002  1  0.66666667  0.83333333  0.70000000  1
  Na  Na8003  1  0.66666667  0.83333333  0.90000000  1
  Na  Na8004  1  0.86666667  0.03333333  0.10000000  1
  Na  Na8005  1  0.86666667  0.03333333  0.30000000  1
  Na  Na8006  1  0.86666667  0.03333333  0.50000000  1
  Na  Na8007  1  0.86666667  0.03333333  0.70000000  1
  Na  Na8008  1  0.86666667  0.03333333  0.90000000  1
  Na  Na8009  1  0.86666667  0.23333333  0.10000000  1
  Na  Na8010  1  0.86666667  0.23333333  0.30000000  1
  Na  Na8011  1  0.86666667  0.23333333  0.50000000  1
  Na  Na8012  1  0.86666667  0.23333333  0.70000000  1
  Na  Na8013  1  0.86666667  0.23333333  0.90000000  1
  Na  Na8014  1  0.86666667  0.43333333  0.10000000  1
  Na  Na8015  1  0.86666667  0.43333333  0.30000000  1
  Na  Na8016  1  0.86666667  0.43333333  0.50000000  1
  Na  Na8017  1  0.86666667  0.43333333  0.90000000  1
  Na  Na8018  1  0.86666667  0.63333333  0.10000000  1
  Na  Na8019  1  0.86666667  0.63333333  0.30000000  1
  Na  Na8020  1  0.86666667  0.63333333  0.50000000  1
  Na  Na8021  1  0.86666667  0.63333333  0.70000000  1
  Na  Na8022  1  0.86666667  0.63333333  0.90000000  1
  Na  Na8023  1  0.86666667  0.83333333  0.10000000  1
  Na  Na8024  1  0.86666667  0.83333333  0.30000000  1
  Na  Na8025  1  0.86666667  0.83333333  0.50000000  1
  Na  Na8026  1  0.86666667  0.83333333  0.70000000  1
  Na  Na8027  1  0.86666667  0.83333333  0.90000000  1
  Na  Na8028  1  0.06666667  0.03333333  0.16666667  1
  Na  Na8029  1  0.06666667  0.03333333  0.36666667  1
  Na  Na8030  1  0.06666667  0.03333333  0.56666667  1
  Na  Na8031  1  0.06666667  0.03333333  0.76666667  1
  Na  Na8032  1  0.06666667  0.03333333  0.96666667  1
  Na  Na8033  1  0.06666667  0.23333333  0.16666667  1
  Na  Na8034  1  0.06666667  0.23333333  0.36666667  1
  Na  Na8035  1  0.06666667  0.23333333  0.56666667  1
  Na  Na8036  1  0.06666667  0.23333333  0.76666667  1
  Na  Na8037  1  0.06666667  0.23333333  0.96666667  1
  Na  Na8038  1  0.06666667  0.43333333  0.16666667  1
  Na  Na8039  1  0.06666667  0.43333333  0.36666667  1
  Na  Na8040  1  0.06666667  0.43333333  0.56666667  1
  Na  Na8041  1  0.06666667  0.43333333  0.76666667  1
  Na  Na8042  1  0.06666667  0.43333333  0.96666667  1
  Na  Na8043  1  0.06666667  0.63333333  0.16666667  1
  Na  Na8044  1  0.06666667  0.63333333  0.36666667  1
  Na  Na8045  1  0.06666667  0.63333333  0.56666667  1
  Na  Na8046  1  0.06666667  0.63333333  0.76666667  1
  Na  Na8047  1  0.06666667  0.63333333  0.96666667  1
  Na  Na8048  1  0.06666667  0.83333333  0.16666667  1
  Na  Na8049  1  0.06666667  0.83333333  0.36666667  1
  Na  Na8050  1  0.06666667  0.83333333  0.56666667  1
  Na  Na8051  1  0.06666667  0.83333333  0.76666667  1
  Na  Na8052  1  0.06666667  0.83333333  0.96666667  1
  Na  Na8053  1  0.26666667  0.03333333  0.16666667  1
  Na  Na8054  1  0.26666667  0.03333333  0.36666667  1
  Na  Na8055  1  0.26666667  0.03333333  0.56666667  1
  Na  Na8056  1  0.26666667  0.03333333  0.76666667  1
  Na  Na8057  1  0.26666667  0.03333333  0.96666667  1
  Na  Na8058  1  0.26666667  0.23333333  0.16666667  1
  Na  Na8059  1  0.26666667  0.23333333  0.36666667  1
  Na  Na8060  1  0.26666667  0.23333333  0.56666667  1
  Na  Na8061  1  0.26666667  0.23333333  0.76666667  1
  Na  Na8062  1  0.26666667  0.23333333  0.96666667  1
  Na  Na8063  1  0.26666667  0.43333333  0.16666667  1
  Na  Na8064  1  0.26666667  0.43333333  0.36666667  1
  Na  Na8065  1  0.26666667  0.43333333  0.56666667  1
  Na  Na8066  1  0.26666667  0.43333333  0.76666667  1
  Na  Na8067  1  0.26666667  0.43333333  0.96666667  1
  Na  Na8068  1  0.26666667  0.63333333  0.16666667  1
  Na  Na8069  1  0.26666667  0.63333333  0.36666667  1
  Na  Na8070  1  0.26666667  0.63333333  0.56666667  1
  Na  Na8071  1  0.26666667  0.63333333  0.76666667  1
  Na  Na8072  1  0.26666667  0.63333333  0.96666667  1
  Na  Na8073  1  0.26666667  0.83333333  0.16666667  1
  Na  Na8074  1  0.26666667  0.83333333  0.36666667  1
  Na  Na8075  1  0.26666667  0.83333333  0.56666667  1
  Na  Na8076  1  0.26666667  0.83333333  0.76666667  1
  Na  Na8077  1  0.26666667  0.83333333  0.96666667  1
  Na  Na8078  1  0.46666667  0.03333333  0.16666667  1
  Na  Na8079  1  0.46666667  0.03333333  0.36666667  1
  Na  Na8080  1  0.46666667  0.03333333  0.56666667  1
  Na  Na8081  1  0.46666667  0.03333333  0.76666667  1
  Na  Na8082  1  0.46666667  0.03333333  0.96666667  1
  Na  Na8083  1  0.46666667  0.23333333  0.16666667  1
  Na  Na8084  1  0.46666667  0.23333333  0.36666667  1
  Na  Na8085  1  0.46666667  0.23333333  0.56666667  1
  Na  Na8086  1  0.46666667  0.23333333  0.76666667  1
  Na  Na8087  1  0.46666667  0.23333333  0.96666667  1
  Na  Na8088  1  0.46666667  0.43333333  0.16666667  1
  Na  Na8089  1  0.46666667  0.43333333  0.36666667  1
  Na  Na8090  1  0.46666667  0.43333333  0.56666667  1
  Na  Na8091  1  0.46666667  0.43333333  0.76666667  1
  Na  Na8092  1  0.46666667  0.43333333  0.96666667  1
  Na  Na8093  1  0.46666667  0.63333333  0.16666667  1
  Na  Na8094  1  0.46666667  0.63333333  0.36666667  1
  Na  Na8095  1  0.46666667  0.63333333  0.56666667  1
  Na  Na8096  1  0.46666667  0.63333333  0.76666667  1
  Na  Na8097  1  0.46666667  0.63333333  0.96666667  1
  Na  Na8098  1  0.46666667  0.83333333  0.16666667  1
  Na  Na8099  1  0.46666667  0.83333333  0.36666667  1
  Na  Na8100  1  0.46666667  0.83333333  0.56666667  1
  Na  Na8101  1  0.46666667  0.83333333  0.76666667  1
  Na  Na8102  1  0.46666667  0.83333333  0.96666667  1
  Na  Na8103  1  0.66666667  0.03333333  0.16666667  1
  Na  Na8104  1  0.66666667  0.03333333  0.36666667  1
  Na  Na8105  1  0.66666667  0.03333333  0.56666667  1
  Na  Na8106  1  0.66666667  0.03333333  0.76666667  1
  Na  Na8107  1  0.66666667  0.03333333  0.96666667  1
  Na  Na8108  1  0.66666667  0.23333333  0.16666667  1
  Na  Na8109  1  0.66666667  0.23333333  0.36666667  1
  Na  Na8110  1  0.66666667  0.23333333  0.56666667  1
  Na  Na8111  1  0.66666667  0.23333333  0.76666667  1
  Na  Na8112  1  0.66666667  0.23333333  0.96666667  1
  Na  Na8113  1  0.66666667  0.43333333  0.16666667  1
  Na  Na8114  1  0.66666667  0.43333333  0.36666667  1
  Na  Na8115  1  0.66666667  0.43333333  0.56666667  1
  Na  Na8116  1  0.66666667  0.43333333  0.76666667  1
  Na  Na8117  1  0.66666667  0.43333333  0.96666667  1
  Na  Na8118  1  0.66666667  0.63333333  0.16666667  1
  Na  Na8119  1  0.66666667  0.63333333  0.36666667  1
  Na  Na8120  1  0.66666667  0.63333333  0.76666667  1
  Na  Na8121  1  0.66666667  0.63333333  0.96666667  1
  Na  Na8122  1  0.66666667  0.83333333  0.16666667  1
  Na  Na8123  1  0.66666667  0.83333333  0.36666667  1
  Na  Na8124  1  0.66666667  0.83333333  0.56666667  1
  Na  Na8125  1  0.66666667  0.83333333  0.76666667  1
  Na  Na8126  1  0.66666667  0.83333333  0.96666667  1
  Na  Na8127  1  0.86666667  0.03333333  0.36666667  1
  Na  Na8128  1  0.86666667  0.03333333  0.56666667  1
  Na  Na8129  1  0.86666667  0.03333333  0.76666667  1
  Na  Na8130  1  0.86666667  0.03333333  0.96666667  1
  Na  Na8131  1  0.86666667  0.23333333  0.16666667  1
  Na  Na8132  1  0.86666667  0.23333333  0.36666667  1
  Na  Na8133  1  0.86666667  0.23333333  0.56666667  1
  Na  Na8134  1  0.86666667  0.23333333  0.76666667  1
  Na  Na8135  1  0.86666667  0.23333333  0.96666667  1
  Na  Na8136  1  0.86666667  0.43333333  0.16666667  1
  Na  Na8137  1  0.86666667  0.43333333  0.36666667  1
  Na  Na8138  1  0.86666667  0.43333333  0.56666667  1
  Na  Na8139  1  0.86666667  0.43333333  0.76666667  1
  Na  Na8140  1  0.86666667  0.43333333  0.96666667  1
  Na  Na8141  1  0.86666667  0.63333333  0.16666667  1
  Na  Na8142  1  0.86666667  0.63333333  0.36666667  1
  Na  Na8143  1  0.86666667  0.63333333  0.56666667  1
  Na  Na8144  1  0.86666667  0.63333333  0.76666667  1
  Na  Na8145  1  0.86666667  0.63333333  0.96666667  1
  Na  Na8146  1  0.86666667  0.83333333  0.16666667  1
  Na  Na8147  1  0.86666667  0.83333333  0.36666667  1
  Na  Na8148  1  0.86666667  0.83333333  0.76666667  1
  Na  Na8149  1  0.86666667  0.83333333  0.96666667  1
  Na  Na8150  1  0.06666667  0.10000000  0.03333333  1
  Na  Na8151  1  0.06666667  0.10000000  0.23333333  1
  Na  Na8152  1  0.06666667  0.10000000  0.43333333  1
  Na  Na8153  1  0.06666667  0.10000000  0.63333333  1
  Na  Na8154  1  0.06666667  0.10000000  0.83333333  1
  Na  Na8155  1  0.06666667  0.30000000  0.03333333  1
  Na  Na8156  1  0.06666667  0.30000000  0.23333333  1
  Na  Na8157  1  0.06666667  0.30000000  0.43333333  1
  Na  Na8158  1  0.06666667  0.30000000  0.63333333  1
  Na  Na8159  1  0.06666667  0.30000000  0.83333333  1
  Na  Na8160  1  0.06666667  0.50000000  0.03333333  1
  Na  Na8161  1  0.06666667  0.50000000  0.23333333  1
  Na  Na8162  1  0.06666667  0.50000000  0.43333333  1
  Na  Na8163  1  0.06666667  0.50000000  0.63333333  1
  Na  Na8164  1  0.06666667  0.50000000  0.83333333  1
  Na  Na8165  1  0.06666667  0.70000000  0.03333333  1
  Na  Na8166  1  0.06666667  0.70000000  0.23333333  1
  Na  Na8167  1  0.06666667  0.70000000  0.43333333  1
  Na  Na8168  1  0.06666667  0.70000000  0.63333333  1
  Na  Na8169  1  0.06666667  0.70000000  0.83333333  1
  Na  Na8170  1  0.06666667  0.90000000  0.03333333  1
  Na  Na8171  1  0.06666667  0.90000000  0.23333333  1
  Na  Na8172  1  0.06666667  0.90000000  0.43333333  1
  Na  Na8173  1  0.06666667  0.90000000  0.63333333  1
  Na  Na8174  1  0.06666667  0.90000000  0.83333333  1
  Na  Na8175  1  0.26666667  0.10000000  0.03333333  1
  Na  Na8176  1  0.26666667  0.10000000  0.23333333  1
  Na  Na8177  1  0.26666667  0.10000000  0.63333333  1
  Na  Na8178  1  0.26666667  0.10000000  0.83333333  1
  Na  Na8179  1  0.26666667  0.30000000  0.03333333  1
  Na  Na8180  1  0.26666667  0.30000000  0.23333333  1
  Na  Na8181  1  0.26666667  0.30000000  0.43333333  1
  Na  Na8182  1  0.26666667  0.30000000  0.63333333  1
  Na  Na8183  1  0.26666667  0.30000000  0.83333333  1
  Na  Na8184  1  0.26666667  0.50000000  0.03333333  1
  Na  Na8185  1  0.26666667  0.50000000  0.23333333  1
  Na  Na8186  1  0.26666667  0.50000000  0.43333333  1
  Na  Na8187  1  0.26666667  0.50000000  0.63333333  1
  Na  Na8188  1  0.26666667  0.50000000  0.83333333  1
  Na  Na8189  1  0.26666667  0.70000000  0.03333333  1
  Na  Na8190  1  0.26666667  0.70000000  0.23333333  1
  Na  Na8191  1  0.26666667  0.70000000  0.43333333  1
  Na  Na8192  1  0.26666667  0.70000000  0.63333333  1
  Na  Na8193  1  0.26666667  0.70000000  0.83333333  1
  Na  Na8194  1  0.26666667  0.90000000  0.03333333  1
  Na  Na8195  1  0.26666667  0.90000000  0.23333333  1
  Na  Na8196  1  0.26666667  0.90000000  0.43333333  1
  Na  Na8197  1  0.26666667  0.90000000  0.63333333  1
  Na  Na8198  1  0.26666667  0.90000000  0.83333333  1
  Na  Na8199  1  0.46666667  0.10000000  0.03333333  1
  Na  Na8200  1  0.46666667  0.10000000  0.23333333  1
  Na  Na8201  1  0.46666667  0.10000000  0.43333333  1
  Na  Na8202  1  0.46666667  0.10000000  0.63333333  1
  Na  Na8203  1  0.46666667  0.10000000  0.83333333  1
  Na  Na8204  1  0.46666667  0.30000000  0.03333333  1
  Na  Na8205  1  0.46666667  0.30000000  0.23333333  1
  Na  Na8206  1  0.46666667  0.30000000  0.43333333  1
  Na  Na8207  1  0.46666667  0.30000000  0.63333333  1
  Na  Na8208  1  0.46666667  0.30000000  0.83333333  1
  Na  Na8209  1  0.46666667  0.50000000  0.03333333  1
  Na  Na8210  1  0.46666667  0.50000000  0.23333333  1
  Na  Na8211  1  0.46666667  0.50000000  0.43333333  1
  Na  Na8212  1  0.46666667  0.50000000  0.63333333  1
  Na  Na8213  1  0.46666667  0.50000000  0.83333333  1
  Na  Na8214  1  0.46666667  0.70000000  0.03333333  1
  Na  Na8215  1  0.46666667  0.70000000  0.23333333  1
  Na  Na8216  1  0.46666667  0.70000000  0.43333333  1
  Na  Na8217  1  0.46666667  0.70000000  0.63333333  1
  Na  Na8218  1  0.46666667  0.70000000  0.83333333  1
  Na  Na8219  1  0.46666667  0.90000000  0.03333333  1
  Na  Na8220  1  0.46666667  0.90000000  0.23333333  1
  Na  Na8221  1  0.46666667  0.90000000  0.43333333  1
  Na  Na8222  1  0.46666667  0.90000000  0.63333333  1
  Na  Na8223  1  0.46666667  0.90000000  0.83333333  1
  Na  Na8224  1  0.66666667  0.10000000  0.03333333  1
  Na  Na8225  1  0.66666667  0.10000000  0.23333333  1
  Na  Na8226  1  0.66666667  0.10000000  0.43333333  1
  Na  Na8227  1  0.66666667  0.10000000  0.63333333  1
  Na  Na8228  1  0.66666667  0.10000000  0.83333333  1
  Na  Na8229  1  0.66666667  0.30000000  0.03333333  1
  Na  Na8230  1  0.66666667  0.30000000  0.23333333  1
  Na  Na8231  1  0.66666667  0.30000000  0.43333333  1
  Na  Na8232  1  0.66666667  0.30000000  0.63333333  1
  Na  Na8233  1  0.66666667  0.30000000  0.83333333  1
  Na  Na8234  1  0.66666667  0.50000000  0.03333333  1
  Na  Na8235  1  0.66666667  0.50000000  0.23333333  1
  Na  Na8236  1  0.66666667  0.50000000  0.43333333  1
  Na  Na8237  1  0.66666667  0.50000000  0.63333333  1
  Na  Na8238  1  0.66666667  0.50000000  0.83333333  1
  Na  Na8239  1  0.66666667  0.70000000  0.03333333  1
  Na  Na8240  1  0.66666667  0.70000000  0.23333333  1
  Na  Na8241  1  0.66666667  0.70000000  0.43333333  1
  Na  Na8242  1  0.66666667  0.70000000  0.63333333  1
  Na  Na8243  1  0.66666667  0.70000000  0.83333333  1
  Na  Na8244  1  0.66666667  0.90000000  0.03333333  1
  Na  Na8245  1  0.66666667  0.90000000  0.23333333  1
  Na  Na8246  1  0.66666667  0.90000000  0.43333333  1
  Na  Na8247  1  0.66666667  0.90000000  0.63333333  1
  Na  Na8248  1  0.66666667  0.90000000  0.83333333  1
  Na  Na8249  1  0.86666667  0.10000000  0.03333333  1
  Na  Na8250  1  0.86666667  0.10000000  0.23333333  1
  Na  Na8251  1  0.86666667  0.10000000  0.43333333  1
  Na  Na8252  1  0.86666667  0.10000000  0.63333333  1
  Na  Na8253  1  0.86666667  0.10000000  0.83333333  1
  Na  Na8254  1  0.86666667  0.30000000  0.23333333  1
  Na  Na8255  1  0.86666667  0.30000000  0.43333333  1
  Na  Na8256  1  0.86666667  0.30000000  0.63333333  1
  Na  Na8257  1  0.86666667  0.30000000  0.83333333  1
  Na  Na8258  1  0.86666667  0.50000000  0.03333333  1
  Na  Na8259  1  0.86666667  0.50000000  0.23333333  1
  Na  Na8260  1  0.86666667  0.50000000  0.43333333  1
  Na  Na8261  1  0.86666667  0.50000000  0.63333333  1
  Na  Na8262  1  0.86666667  0.50000000  0.83333333  1
  Na  Na8263  1  0.86666667  0.70000000  0.03333333  1
  Na  Na8264  1  0.86666667  0.70000000  0.23333333  1
  Na  Na8265  1  0.86666667  0.70000000  0.43333333  1
  Na  Na8266  1  0.86666667  0.70000000  0.63333333  1
  Na  Na8267  1  0.86666667  0.70000000  0.83333333  1
  Na  Na8268  1  0.86666667  0.90000000  0.03333333  1
  Na  Na8269  1  0.86666667  0.90000000  0.23333333  1
  Na  Na8270  1  0.86666667  0.90000000  0.43333333  1
  Na  Na8271  1  0.86666667  0.90000000  0.63333333  1
  Na  Na8272  1  0.86666667  0.90000000  0.83333333  1
  Na  Na8273  1  0.06666667  0.10000000  0.10000000  1
  Na  Na8274  1  0.06666667  0.10000000  0.30000000  1
  Na  Na8275  1  0.06666667  0.10000000  0.50000000  1
  Na  Na8276  1  0.06666667  0.10000000  0.70000000  1
  Na  Na8277  1  0.06666667  0.10000000  0.90000000  1
  Na  Na8278  1  0.06666667  0.30000000  0.30000000  1
  Na  Na8279  1  0.06666667  0.30000000  0.50000000  1
  Na  Na8280  1  0.06666667  0.30000000  0.70000000  1
  Na  Na8281  1  0.06666667  0.30000000  0.90000000  1
  Na  Na8282  1  0.06666667  0.50000000  0.10000000  1
  Na  Na8283  1  0.06666667  0.50000000  0.30000000  1
  Na  Na8284  1  0.06666667  0.50000000  0.50000000  1
  Na  Na8285  1  0.06666667  0.50000000  0.70000000  1
  Na  Na8286  1  0.06666667  0.50000000  0.90000000  1
  Na  Na8287  1  0.06666667  0.70000000  0.10000000  1
  Na  Na8288  1  0.06666667  0.70000000  0.30000000  1
  Na  Na8289  1  0.06666667  0.70000000  0.50000000  1
  Na  Na8290  1  0.06666667  0.70000000  0.70000000  1
  Na  Na8291  1  0.06666667  0.70000000  0.90000000  1
  Na  Na8292  1  0.06666667  0.90000000  0.10000000  1
  Na  Na8293  1  0.06666667  0.90000000  0.30000000  1
  Na  Na8294  1  0.06666667  0.90000000  0.50000000  1
  Na  Na8295  1  0.06666667  0.90000000  0.70000000  1
  Na  Na8296  1  0.06666667  0.90000000  0.90000000  1
  Na  Na8297  1  0.26666667  0.10000000  0.10000000  1
  Na  Na8298  1  0.26666667  0.10000000  0.30000000  1
  Na  Na8299  1  0.26666667  0.10000000  0.50000000  1
  Na  Na8300  1  0.26666667  0.10000000  0.70000000  1
  Na  Na8301  1  0.26666667  0.10000000  0.90000000  1
  Na  Na8302  1  0.26666667  0.30000000  0.10000000  1
  Na  Na8303  1  0.26666667  0.30000000  0.30000000  1
  Na  Na8304  1  0.26666667  0.30000000  0.50000000  1
  Na  Na8305  1  0.26666667  0.30000000  0.70000000  1
  Na  Na8306  1  0.26666667  0.30000000  0.90000000  1
  Na  Na8307  1  0.26666667  0.50000000  0.10000000  1
  Na  Na8308  1  0.26666667  0.50000000  0.30000000  1
  Na  Na8309  1  0.26666667  0.50000000  0.50000000  1
  Na  Na8310  1  0.26666667  0.50000000  0.70000000  1
  Na  Na8311  1  0.26666667  0.50000000  0.90000000  1
  Na  Na8312  1  0.26666667  0.70000000  0.10000000  1
  Na  Na8313  1  0.26666667  0.70000000  0.30000000  1
  Na  Na8314  1  0.26666667  0.70000000  0.50000000  1
  Na  Na8315  1  0.26666667  0.70000000  0.70000000  1
  Na  Na8316  1  0.26666667  0.70000000  0.90000000  1
  Na  Na8317  1  0.26666667  0.90000000  0.10000000  1
  Na  Na8318  1  0.26666667  0.90000000  0.30000000  1
  Na  Na8319  1  0.26666667  0.90000000  0.50000000  1
  Na  Na8320  1  0.26666667  0.90000000  0.70000000  1
  Na  Na8321  1  0.26666667  0.90000000  0.90000000  1
  Na  Na8322  1  0.46666667  0.10000000  0.10000000  1
  Na  Na8323  1  0.46666667  0.10000000  0.30000000  1
  Na  Na8324  1  0.46666667  0.10000000  0.50000000  1
  Na  Na8325  1  0.46666667  0.10000000  0.70000000  1
  Na  Na8326  1  0.46666667  0.10000000  0.90000000  1
  Na  Na8327  1  0.46666667  0.30000000  0.10000000  1
  Na  Na8328  1  0.46666667  0.30000000  0.30000000  1
  Na  Na8329  1  0.46666667  0.30000000  0.50000000  1
  Na  Na8330  1  0.46666667  0.30000000  0.70000000  1
  Na  Na8331  1  0.46666667  0.30000000  0.90000000  1
  Na  Na8332  1  0.46666667  0.50000000  0.10000000  1
  Na  Na8333  1  0.46666667  0.50000000  0.30000000  1
  Na  Na8334  1  0.46666667  0.50000000  0.50000000  1
  Na  Na8335  1  0.46666667  0.50000000  0.70000000  1
  Na  Na8336  1  0.46666667  0.50000000  0.90000000  1
  Na  Na8337  1  0.46666667  0.70000000  0.10000000  1
  Na  Na8338  1  0.46666667  0.70000000  0.30000000  1
  Na  Na8339  1  0.46666667  0.70000000  0.50000000  1
  Na  Na8340  1  0.46666667  0.70000000  0.70000000  1
  Na  Na8341  1  0.46666667  0.70000000  0.90000000  1
  Na  Na8342  1  0.46666667  0.90000000  0.10000000  1
  Na  Na8343  1  0.46666667  0.90000000  0.30000000  1
  Na  Na8344  1  0.46666667  0.90000000  0.50000000  1
  Na  Na8345  1  0.46666667  0.90000000  0.70000000  1
  Na  Na8346  1  0.46666667  0.90000000  0.90000000  1
  Na  Na8347  1  0.66666667  0.10000000  0.10000000  1
  Na  Na8348  1  0.66666667  0.10000000  0.30000000  1
  Na  Na8349  1  0.66666667  0.10000000  0.50000000  1
  Na  Na8350  1  0.66666667  0.10000000  0.70000000  1
  Na  Na8351  1  0.66666667  0.10000000  0.90000000  1
  Na  Na8352  1  0.66666667  0.30000000  0.10000000  1
  Na  Na8353  1  0.66666667  0.30000000  0.30000000  1
  Na  Na8354  1  0.66666667  0.30000000  0.50000000  1
  Na  Na8355  1  0.66666667  0.30000000  0.70000000  1
  Na  Na8356  1  0.66666667  0.50000000  0.10000000  1
  Na  Na8357  1  0.66666667  0.50000000  0.30000000  1
  Na  Na8358  1  0.66666667  0.50000000  0.50000000  1
  Na  Na8359  1  0.66666667  0.50000000  0.70000000  1
  Na  Na8360  1  0.66666667  0.50000000  0.90000000  1
  Na  Na8361  1  0.66666667  0.70000000  0.10000000  1
  Na  Na8362  1  0.66666667  0.70000000  0.30000000  1
  Na  Na8363  1  0.66666667  0.70000000  0.50000000  1
  Na  Na8364  1  0.66666667  0.70000000  0.70000000  1
  Na  Na8365  1  0.66666667  0.70000000  0.90000000  1
  Na  Na8366  1  0.66666667  0.90000000  0.10000000  1
  Na  Na8367  1  0.66666667  0.90000000  0.30000000  1
  Na  Na8368  1  0.66666667  0.90000000  0.50000000  1
  Na  Na8369  1  0.66666667  0.90000000  0.70000000  1
  Na  Na8370  1  0.66666667  0.90000000  0.90000000  1
  Na  Na8371  1  0.86666667  0.10000000  0.10000000  1
  Na  Na8372  1  0.86666667  0.10000000  0.30000000  1
  Na  Na8373  1  0.86666667  0.10000000  0.50000000  1
  Na  Na8374  1  0.86666667  0.10000000  0.70000000  1
  Na  Na8375  1  0.86666667  0.10000000  0.90000000  1
  Na  Na8376  1  0.86666667  0.30000000  0.10000000  1
  Na  Na8377  1  0.86666667  0.30000000  0.30000000  1
  Na  Na8378  1  0.86666667  0.30000000  0.50000000  1
  Na  Na8379  1  0.86666667  0.30000000  0.70000000  1
  Na  Na8380  1  0.86666667  0.30000000  0.90000000  1
  Na  Na8381  1  0.86666667  0.50000000  0.10000000  1
  Na  Na8382  1  0.86666667  0.50000000  0.30000000  1
  Na  Na8383  1  0.86666667  0.50000000  0.50000000  1
  Na  Na8384  1  0.86666667  0.50000000  0.70000000  1
  Na  Na8385  1  0.86666667  0.50000000  0.90000000  1
  Na  Na8386  1  0.86666667  0.70000000  0.10000000  1
  Na  Na8387  1  0.86666667  0.70000000  0.30000000  1
  Na  Na8388  1  0.86666667  0.70000000  0.50000000  1
  Na  Na8389  1  0.86666667  0.70000000  0.70000000  1
  Na  Na8390  1  0.86666667  0.70000000  0.90000000  1
  Na  Na8391  1  0.86666667  0.90000000  0.10000000  1
  Na  Na8392  1  0.86666667  0.90000000  0.30000000  1
  Na  Na8393  1  0.86666667  0.90000000  0.50000000  1
  Na  Na8394  1  0.86666667  0.90000000  0.70000000  1
  Na  Na8395  1  0.86666667  0.90000000  0.90000000  1
  Na  Na8396  1  0.06666667  0.10000000  0.16666667  1
  Na  Na8397  1  0.06666667  0.10000000  0.36666667  1
  Na  Na8398  1  0.06666667  0.10000000  0.56666667  1
  Na  Na8399  1  0.06666667  0.10000000  0.76666667  1
  Na  Na8400  1  0.06666667  0.10000000  0.96666667  1
  Na  Na8401  1  0.06666667  0.30000000  0.16666667  1
  Na  Na8402  1  0.06666667  0.30000000  0.36666667  1
  Na  Na8403  1  0.06666667  0.30000000  0.56666667  1
  Na  Na8404  1  0.06666667  0.30000000  0.76666667  1
  Na  Na8405  1  0.06666667  0.30000000  0.96666667  1
  Na  Na8406  1  0.06666667  0.50000000  0.16666667  1
  Na  Na8407  1  0.06666667  0.50000000  0.36666667  1
  Na  Na8408  1  0.06666667  0.50000000  0.56666667  1
  Na  Na8409  1  0.06666667  0.50000000  0.76666667  1
  Na  Na8410  1  0.06666667  0.50000000  0.96666667  1
  Na  Na8411  1  0.06666667  0.70000000  0.16666667  1
  Na  Na8412  1  0.06666667  0.70000000  0.36666667  1
  Na  Na8413  1  0.06666667  0.70000000  0.56666667  1
  Na  Na8414  1  0.06666667  0.70000000  0.76666667  1
  Na  Na8415  1  0.06666667  0.70000000  0.96666667  1
  Na  Na8416  1  0.06666667  0.90000000  0.16666667  1
  Na  Na8417  1  0.06666667  0.90000000  0.36666667  1
  Na  Na8418  1  0.06666667  0.90000000  0.56666667  1
  Na  Na8419  1  0.06666667  0.90000000  0.76666667  1
  Na  Na8420  1  0.06666667  0.90000000  0.96666667  1
  Na  Na8421  1  0.26666667  0.10000000  0.16666667  1
  Na  Na8422  1  0.26666667  0.10000000  0.36666667  1
  Na  Na8423  1  0.26666667  0.10000000  0.56666667  1
  Na  Na8424  1  0.26666667  0.10000000  0.76666667  1
  Na  Na8425  1  0.26666667  0.10000000  0.96666667  1
  Na  Na8426  1  0.26666667  0.30000000  0.16666667  1
  Na  Na8427  1  0.26666667  0.30000000  0.36666667  1
  Na  Na8428  1  0.26666667  0.30000000  0.56666667  1
  Na  Na8429  1  0.26666667  0.30000000  0.76666667  1
  Na  Na8430  1  0.26666667  0.30000000  0.96666667  1
  Na  Na8431  1  0.26666667  0.50000000  0.16666667  1
  Na  Na8432  1  0.26666667  0.50000000  0.36666667  1
  Na  Na8433  1  0.26666667  0.50000000  0.56666667  1
  Na  Na8434  1  0.26666667  0.50000000  0.76666667  1
  Na  Na8435  1  0.26666667  0.50000000  0.96666667  1
  Na  Na8436  1  0.26666667  0.70000000  0.16666667  1
  Na  Na8437  1  0.26666667  0.70000000  0.36666667  1
  Na  Na8438  1  0.26666667  0.70000000  0.56666667  1
  Na  Na8439  1  0.26666667  0.70000000  0.76666667  1
  Na  Na8440  1  0.26666667  0.70000000  0.96666667  1
  Na  Na8441  1  0.26666667  0.90000000  0.16666667  1
  Na  Na8442  1  0.26666667  0.90000000  0.36666667  1
  Na  Na8443  1  0.26666667  0.90000000  0.56666667  1
  Na  Na8444  1  0.26666667  0.90000000  0.76666667  1
  Na  Na8445  1  0.26666667  0.90000000  0.96666667  1
  Na  Na8446  1  0.46666667  0.10000000  0.16666667  1
  Na  Na8447  1  0.46666667  0.10000000  0.36666667  1
  Na  Na8448  1  0.46666667  0.10000000  0.56666667  1
  Na  Na8449  1  0.46666667  0.10000000  0.76666667  1
  Na  Na8450  1  0.46666667  0.10000000  0.96666667  1
  Na  Na8451  1  0.46666667  0.30000000  0.16666667  1
  Na  Na8452  1  0.46666667  0.30000000  0.36666667  1
  Na  Na8453  1  0.46666667  0.30000000  0.56666667  1
  Na  Na8454  1  0.46666667  0.30000000  0.76666667  1
  Na  Na8455  1  0.46666667  0.30000000  0.96666667  1
  Na  Na8456  1  0.46666667  0.50000000  0.16666667  1
  Na  Na8457  1  0.46666667  0.50000000  0.36666667  1
  Na  Na8458  1  0.46666667  0.50000000  0.56666667  1
  Na  Na8459  1  0.46666667  0.50000000  0.76666667  1
  Na  Na8460  1  0.46666667  0.50000000  0.96666667  1
  Na  Na8461  1  0.46666667  0.70000000  0.16666667  1
  Na  Na8462  1  0.46666667  0.70000000  0.36666667  1
  Na  Na8463  1  0.46666667  0.70000000  0.56666667  1
  Na  Na8464  1  0.46666667  0.70000000  0.76666667  1
  Na  Na8465  1  0.46666667  0.70000000  0.96666667  1
  Na  Na8466  1  0.46666667  0.90000000  0.16666667  1
  Na  Na8467  1  0.46666667  0.90000000  0.36666667  1
  Na  Na8468  1  0.46666667  0.90000000  0.56666667  1
  Na  Na8469  1  0.46666667  0.90000000  0.76666667  1
  Na  Na8470  1  0.46666667  0.90000000  0.96666667  1
  Na  Na8471  1  0.66666667  0.10000000  0.16666667  1
  Na  Na8472  1  0.66666667  0.10000000  0.36666667  1
  Na  Na8473  1  0.66666667  0.10000000  0.56666667  1
  Na  Na8474  1  0.66666667  0.10000000  0.76666667  1
  Na  Na8475  1  0.66666667  0.10000000  0.96666667  1
  Na  Na8476  1  0.66666667  0.30000000  0.16666667  1
  Na  Na8477  1  0.66666667  0.30000000  0.36666667  1
  Na  Na8478  1  0.66666667  0.30000000  0.56666667  1
  Na  Na8479  1  0.66666667  0.30000000  0.76666667  1
  Na  Na8480  1  0.66666667  0.30000000  0.96666667  1
  Na  Na8481  1  0.66666667  0.50000000  0.16666667  1
  Na  Na8482  1  0.66666667  0.50000000  0.36666667  1
  Na  Na8483  1  0.66666667  0.50000000  0.56666667  1
  Na  Na8484  1  0.66666667  0.50000000  0.76666667  1
  Na  Na8485  1  0.66666667  0.50000000  0.96666667  1
  Na  Na8486  1  0.66666667  0.70000000  0.16666667  1
  Na  Na8487  1  0.66666667  0.70000000  0.36666667  1
  Na  Na8488  1  0.66666667  0.70000000  0.56666667  1
  Na  Na8489  1  0.66666667  0.70000000  0.76666667  1
  Na  Na8490  1  0.66666667  0.70000000  0.96666667  1
  Na  Na8491  1  0.66666667  0.90000000  0.16666667  1
  Na  Na8492  1  0.66666667  0.90000000  0.36666667  1
  Na  Na8493  1  0.66666667  0.90000000  0.76666667  1
  Na  Na8494  1  0.66666667  0.90000000  0.96666667  1
  Na  Na8495  1  0.86666667  0.10000000  0.16666667  1
  Na  Na8496  1  0.86666667  0.10000000  0.36666667  1
  Na  Na8497  1  0.86666667  0.10000000  0.56666667  1
  Na  Na8498  1  0.86666667  0.10000000  0.76666667  1
  Na  Na8499  1  0.86666667  0.10000000  0.96666667  1
  Na  Na8500  1  0.86666667  0.30000000  0.16666667  1
  Na  Na8501  1  0.86666667  0.30000000  0.36666667  1
  Na  Na8502  1  0.86666667  0.30000000  0.56666667  1
  Na  Na8503  1  0.86666667  0.30000000  0.76666667  1
  Na  Na8504  1  0.86666667  0.30000000  0.96666667  1
  Na  Na8505  1  0.86666667  0.50000000  0.16666667  1
  Na  Na8506  1  0.86666667  0.50000000  0.36666667  1
  Na  Na8507  1  0.86666667  0.50000000  0.56666667  1
  Na  Na8508  1  0.86666667  0.50000000  0.76666667  1
  Na  Na8509  1  0.86666667  0.50000000  0.96666667  1
  Na  Na8510  1  0.86666667  0.70000000  0.16666667  1
  Na  Na8511  1  0.86666667  0.70000000  0.36666667  1
  Na  Na8512  1  0.86666667  0.70000000  0.56666667  1
  Na  Na8513  1  0.86666667  0.70000000  0.76666667  1
  Na  Na8514  1  0.86666667  0.70000000  0.96666667  1
  Na  Na8515  1  0.86666667  0.90000000  0.16666667  1
  Na  Na8516  1  0.86666667  0.90000000  0.36666667  1
  Na  Na8517  1  0.86666667  0.90000000  0.56666667  1
  Na  Na8518  1  0.86666667  0.90000000  0.76666667  1
  Na  Na8519  1  0.86666667  0.90000000  0.96666667  1
  Na  Na8520  1  0.06666667  0.16666667  0.03333333  1
  Na  Na8521  1  0.06666667  0.16666667  0.23333333  1
  Na  Na8522  1  0.06666667  0.16666667  0.43333333  1
  Na  Na8523  1  0.06666667  0.16666667  0.63333333  1
  Na  Na8524  1  0.06666667  0.16666667  0.83333333  1
  Na  Na8525  1  0.06666667  0.36666667  0.03333333  1
  Na  Na8526  1  0.06666667  0.36666667  0.23333333  1
  Na  Na8527  1  0.06666667  0.36666667  0.43333333  1
  Na  Na8528  1  0.06666667  0.36666667  0.63333333  1
  Na  Na8529  1  0.06666667  0.36666667  0.83333333  1
  Na  Na8530  1  0.06666667  0.56666667  0.03333333  1
  Na  Na8531  1  0.06666667  0.56666667  0.43333333  1
  Na  Na8532  1  0.06666667  0.56666667  0.63333333  1
  Na  Na8533  1  0.06666667  0.56666667  0.83333333  1
  Na  Na8534  1  0.06666667  0.76666667  0.03333333  1
  Na  Na8535  1  0.06666667  0.76666667  0.23333333  1
  Na  Na8536  1  0.06666667  0.76666667  0.43333333  1
  Na  Na8537  1  0.06666667  0.76666667  0.63333333  1
  Na  Na8538  1  0.06666667  0.76666667  0.83333333  1
  Na  Na8539  1  0.06666667  0.96666667  0.03333333  1
  Na  Na8540  1  0.06666667  0.96666667  0.23333333  1
  Na  Na8541  1  0.06666667  0.96666667  0.43333333  1
  Na  Na8542  1  0.06666667  0.96666667  0.63333333  1
  Na  Na8543  1  0.06666667  0.96666667  0.83333333  1
  Na  Na8544  1  0.26666667  0.16666667  0.03333333  1
  Na  Na8545  1  0.26666667  0.16666667  0.23333333  1
  Na  Na8546  1  0.26666667  0.16666667  0.43333333  1
  Na  Na8547  1  0.26666667  0.16666667  0.63333333  1
  Na  Na8548  1  0.26666667  0.16666667  0.83333333  1
  Na  Na8549  1  0.26666667  0.36666667  0.03333333  1
  Na  Na8550  1  0.26666667  0.36666667  0.23333333  1
  Na  Na8551  1  0.26666667  0.36666667  0.43333333  1
  Na  Na8552  1  0.26666667  0.36666667  0.63333333  1
  Na  Na8553  1  0.26666667  0.36666667  0.83333333  1
  Na  Na8554  1  0.26666667  0.56666667  0.03333333  1
  Na  Na8555  1  0.26666667  0.56666667  0.23333333  1
  Na  Na8556  1  0.26666667  0.56666667  0.43333333  1
  Na  Na8557  1  0.26666667  0.56666667  0.63333333  1
  Na  Na8558  1  0.26666667  0.56666667  0.83333333  1
  Na  Na8559  1  0.26666667  0.76666667  0.03333333  1
  Na  Na8560  1  0.26666667  0.76666667  0.23333333  1
  Na  Na8561  1  0.26666667  0.76666667  0.43333333  1
  Na  Na8562  1  0.26666667  0.76666667  0.63333333  1
  Na  Na8563  1  0.26666667  0.76666667  0.83333333  1
  Na  Na8564  1  0.26666667  0.96666667  0.03333333  1
  Na  Na8565  1  0.26666667  0.96666667  0.23333333  1
  Na  Na8566  1  0.26666667  0.96666667  0.43333333  1
  Na  Na8567  1  0.26666667  0.96666667  0.63333333  1
  Na  Na8568  1  0.26666667  0.96666667  0.83333333  1
  Na  Na8569  1  0.46666667  0.16666667  0.03333333  1
  Na  Na8570  1  0.46666667  0.16666667  0.23333333  1
  Na  Na8571  1  0.46666667  0.16666667  0.63333333  1
  Na  Na8572  1  0.46666667  0.16666667  0.83333333  1
  Na  Na8573  1  0.46666667  0.36666667  0.03333333  1
  Na  Na8574  1  0.46666667  0.36666667  0.23333333  1
  Na  Na8575  1  0.46666667  0.36666667  0.43333333  1
  Na  Na8576  1  0.46666667  0.36666667  0.63333333  1
  Na  Na8577  1  0.46666667  0.36666667  0.83333333  1
  Na  Na8578  1  0.46666667  0.56666667  0.03333333  1
  Na  Na8579  1  0.46666667  0.56666667  0.23333333  1
  Na  Na8580  1  0.46666667  0.56666667  0.43333333  1
  Na  Na8581  1  0.46666667  0.56666667  0.63333333  1
  Na  Na8582  1  0.46666667  0.56666667  0.83333333  1
  Na  Na8583  1  0.46666667  0.76666667  0.03333333  1
  Na  Na8584  1  0.46666667  0.76666667  0.23333333  1
  Na  Na8585  1  0.46666667  0.76666667  0.43333333  1
  Na  Na8586  1  0.46666667  0.76666667  0.63333333  1
  Na  Na8587  1  0.46666667  0.76666667  0.83333333  1
  Na  Na8588  1  0.46666667  0.96666667  0.03333333  1
  Na  Na8589  1  0.46666667  0.96666667  0.23333333  1
  Na  Na8590  1  0.46666667  0.96666667  0.43333333  1
  Na  Na8591  1  0.46666667  0.96666667  0.63333333  1
  Na  Na8592  1  0.46666667  0.96666667  0.83333333  1
  Na  Na8593  1  0.66666667  0.16666667  0.03333333  1
  Na  Na8594  1  0.66666667  0.16666667  0.23333333  1
  Na  Na8595  1  0.66666667  0.16666667  0.43333333  1
  Na  Na8596  1  0.66666667  0.16666667  0.63333333  1
  Na  Na8597  1  0.66666667  0.16666667  0.83333333  1
  Na  Na8598  1  0.66666667  0.36666667  0.03333333  1
  Na  Na8599  1  0.66666667  0.36666667  0.23333333  1
  Na  Na8600  1  0.66666667  0.36666667  0.43333333  1
  Na  Na8601  1  0.66666667  0.36666667  0.63333333  1
  Na  Na8602  1  0.66666667  0.36666667  0.83333333  1
  Na  Na8603  1  0.66666667  0.56666667  0.03333333  1
  Na  Na8604  1  0.66666667  0.56666667  0.23333333  1
  Na  Na8605  1  0.66666667  0.56666667  0.43333333  1
  Na  Na8606  1  0.66666667  0.56666667  0.63333333  1
  Na  Na8607  1  0.66666667  0.56666667  0.83333333  1
  Na  Na8608  1  0.66666667  0.76666667  0.03333333  1
  Na  Na8609  1  0.66666667  0.76666667  0.23333333  1
  Na  Na8610  1  0.66666667  0.76666667  0.43333333  1
  Na  Na8611  1  0.66666667  0.76666667  0.63333333  1
  Na  Na8612  1  0.66666667  0.76666667  0.83333333  1
  Na  Na8613  1  0.66666667  0.96666667  0.03333333  1
  Na  Na8614  1  0.66666667  0.96666667  0.23333333  1
  Na  Na8615  1  0.66666667  0.96666667  0.43333333  1
  Na  Na8616  1  0.66666667  0.96666667  0.63333333  1
  Na  Na8617  1  0.66666667  0.96666667  0.83333333  1
  Na  Na8618  1  0.86666667  0.16666667  0.03333333  1
  Na  Na8619  1  0.86666667  0.16666667  0.23333333  1
  Na  Na8620  1  0.86666667  0.16666667  0.43333333  1
  Na  Na8621  1  0.86666667  0.16666667  0.63333333  1
  Na  Na8622  1  0.86666667  0.16666667  0.83333333  1
  Na  Na8623  1  0.86666667  0.36666667  0.03333333  1
  Na  Na8624  1  0.86666667  0.36666667  0.43333333  1
  Na  Na8625  1  0.86666667  0.36666667  0.63333333  1
  Na  Na8626  1  0.86666667  0.36666667  0.83333333  1
  Na  Na8627  1  0.86666667  0.56666667  0.03333333  1
  Na  Na8628  1  0.86666667  0.56666667  0.23333333  1
  Na  Na8629  1  0.86666667  0.56666667  0.43333333  1
  Na  Na8630  1  0.86666667  0.56666667  0.83333333  1
  Na  Na8631  1  0.86666667  0.76666667  0.03333333  1
  Na  Na8632  1  0.86666667  0.76666667  0.23333333  1
  Na  Na8633  1  0.86666667  0.76666667  0.43333333  1
  Na  Na8634  1  0.86666667  0.76666667  0.63333333  1
  Na  Na8635  1  0.86666667  0.76666667  0.83333333  1
  Na  Na8636  1  0.86666667  0.96666667  0.03333333  1
  Na  Na8637  1  0.86666667  0.96666667  0.23333333  1
  Na  Na8638  1  0.86666667  0.96666667  0.43333333  1
  Na  Na8639  1  0.86666667  0.96666667  0.63333333  1
  Na  Na8640  1  0.86666667  0.96666667  0.83333333  1
  Na  Na8641  1  0.06666667  0.16666667  0.10000000  1
  Na  Na8642  1  0.06666667  0.16666667  0.30000000  1
  Na  Na8643  1  0.06666667  0.16666667  0.50000000  1
  Na  Na8644  1  0.06666667  0.16666667  0.70000000  1
  Na  Na8645  1  0.06666667  0.16666667  0.90000000  1
  Na  Na8646  1  0.06666667  0.36666667  0.10000000  1
  Na  Na8647  1  0.06666667  0.36666667  0.30000000  1
  Na  Na8648  1  0.06666667  0.36666667  0.50000000  1
  Na  Na8649  1  0.06666667  0.36666667  0.70000000  1
  Na  Na8650  1  0.06666667  0.36666667  0.90000000  1
  Na  Na8651  1  0.06666667  0.56666667  0.10000000  1
  Na  Na8652  1  0.06666667  0.56666667  0.30000000  1
  Na  Na8653  1  0.06666667  0.56666667  0.50000000  1
  Na  Na8654  1  0.06666667  0.56666667  0.70000000  1
  Na  Na8655  1  0.06666667  0.56666667  0.90000000  1
  Na  Na8656  1  0.06666667  0.76666667  0.10000000  1
  Na  Na8657  1  0.06666667  0.76666667  0.30000000  1
  Na  Na8658  1  0.06666667  0.76666667  0.50000000  1
  Na  Na8659  1  0.06666667  0.76666667  0.70000000  1
  Na  Na8660  1  0.06666667  0.76666667  0.90000000  1
  Na  Na8661  1  0.06666667  0.96666667  0.10000000  1
  Na  Na8662  1  0.06666667  0.96666667  0.30000000  1
  Na  Na8663  1  0.06666667  0.96666667  0.50000000  1
  Na  Na8664  1  0.06666667  0.96666667  0.70000000  1
  Na  Na8665  1  0.06666667  0.96666667  0.90000000  1
  Na  Na8666  1  0.26666667  0.16666667  0.10000000  1
  Na  Na8667  1  0.26666667  0.16666667  0.30000000  1
  Na  Na8668  1  0.26666667  0.16666667  0.50000000  1
  Na  Na8669  1  0.26666667  0.16666667  0.70000000  1
  Na  Na8670  1  0.26666667  0.16666667  0.90000000  1
  Na  Na8671  1  0.26666667  0.36666667  0.10000000  1
  Na  Na8672  1  0.26666667  0.36666667  0.30000000  1
  Na  Na8673  1  0.26666667  0.36666667  0.50000000  1
  Na  Na8674  1  0.26666667  0.36666667  0.70000000  1
  Na  Na8675  1  0.26666667  0.36666667  0.90000000  1
  Na  Na8676  1  0.26666667  0.56666667  0.10000000  1
  Na  Na8677  1  0.26666667  0.56666667  0.30000000  1
  Na  Na8678  1  0.26666667  0.56666667  0.50000000  1
  Na  Na8679  1  0.26666667  0.56666667  0.70000000  1
  Na  Na8680  1  0.26666667  0.56666667  0.90000000  1
  Na  Na8681  1  0.26666667  0.76666667  0.10000000  1
  Na  Na8682  1  0.26666667  0.76666667  0.30000000  1
  Na  Na8683  1  0.26666667  0.76666667  0.50000000  1
  Na  Na8684  1  0.26666667  0.76666667  0.70000000  1
  Na  Na8685  1  0.26666667  0.76666667  0.90000000  1
  Na  Na8686  1  0.26666667  0.96666667  0.10000000  1
  Na  Na8687  1  0.26666667  0.96666667  0.30000000  1
  Na  Na8688  1  0.26666667  0.96666667  0.50000000  1
  Na  Na8689  1  0.26666667  0.96666667  0.70000000  1
  Na  Na8690  1  0.26666667  0.96666667  0.90000000  1
  Na  Na8691  1  0.46666667  0.16666667  0.10000000  1
  Na  Na8692  1  0.46666667  0.16666667  0.30000000  1
  Na  Na8693  1  0.46666667  0.16666667  0.50000000  1
  Na  Na8694  1  0.46666667  0.16666667  0.70000000  1
  Na  Na8695  1  0.46666667  0.16666667  0.90000000  1
  Na  Na8696  1  0.46666667  0.36666667  0.10000000  1
  Na  Na8697  1  0.46666667  0.36666667  0.30000000  1
  Na  Na8698  1  0.46666667  0.36666667  0.50000000  1
  Na  Na8699  1  0.46666667  0.36666667  0.70000000  1
  Na  Na8700  1  0.46666667  0.36666667  0.90000000  1
  Na  Na8701  1  0.46666667  0.56666667  0.10000000  1
  Na  Na8702  1  0.46666667  0.56666667  0.30000000  1
  Na  Na8703  1  0.46666667  0.56666667  0.50000000  1
  Na  Na8704  1  0.46666667  0.56666667  0.70000000  1
  Na  Na8705  1  0.46666667  0.56666667  0.90000000  1
  Na  Na8706  1  0.46666667  0.76666667  0.10000000  1
  Na  Na8707  1  0.46666667  0.76666667  0.30000000  1
  Na  Na8708  1  0.46666667  0.76666667  0.50000000  1
  Na  Na8709  1  0.46666667  0.76666667  0.70000000  1
  Na  Na8710  1  0.46666667  0.76666667  0.90000000  1
  Na  Na8711  1  0.46666667  0.96666667  0.10000000  1
  Na  Na8712  1  0.46666667  0.96666667  0.30000000  1
  Na  Na8713  1  0.46666667  0.96666667  0.50000000  1
  Na  Na8714  1  0.46666667  0.96666667  0.70000000  1
  Na  Na8715  1  0.46666667  0.96666667  0.90000000  1
  Na  Na8716  1  0.66666667  0.16666667  0.10000000  1
  Na  Na8717  1  0.66666667  0.16666667  0.30000000  1
  Na  Na8718  1  0.66666667  0.16666667  0.50000000  1
  Na  Na8719  1  0.66666667  0.16666667  0.70000000  1
  Na  Na8720  1  0.66666667  0.16666667  0.90000000  1
  Na  Na8721  1  0.66666667  0.36666667  0.10000000  1
  Na  Na8722  1  0.66666667  0.36666667  0.30000000  1
  Na  Na8723  1  0.66666667  0.36666667  0.50000000  1
  Na  Na8724  1  0.66666667  0.36666667  0.70000000  1
  Na  Na8725  1  0.66666667  0.36666667  0.90000000  1
  Na  Na8726  1  0.66666667  0.56666667  0.30000000  1
  Na  Na8727  1  0.66666667  0.56666667  0.50000000  1
  Na  Na8728  1  0.66666667  0.56666667  0.70000000  1
  Na  Na8729  1  0.66666667  0.56666667  0.90000000  1
  Na  Na8730  1  0.66666667  0.76666667  0.10000000  1
  Na  Na8731  1  0.66666667  0.76666667  0.30000000  1
  Na  Na8732  1  0.66666667  0.76666667  0.50000000  1
  Na  Na8733  1  0.66666667  0.76666667  0.70000000  1
  Na  Na8734  1  0.66666667  0.76666667  0.90000000  1
  Na  Na8735  1  0.66666667  0.96666667  0.10000000  1
  Na  Na8736  1  0.66666667  0.96666667  0.30000000  1
  Na  Na8737  1  0.66666667  0.96666667  0.50000000  1
  Na  Na8738  1  0.66666667  0.96666667  0.70000000  1
  Na  Na8739  1  0.66666667  0.96666667  0.90000000  1
  Na  Na8740  1  0.86666667  0.16666667  0.30000000  1
  Na  Na8741  1  0.86666667  0.16666667  0.50000000  1
  Na  Na8742  1  0.86666667  0.16666667  0.70000000  1
  Na  Na8743  1  0.86666667  0.16666667  0.90000000  1
  Na  Na8744  1  0.86666667  0.36666667  0.10000000  1
  Na  Na8745  1  0.86666667  0.36666667  0.30000000  1
  Na  Na8746  1  0.86666667  0.36666667  0.50000000  1
  Na  Na8747  1  0.86666667  0.36666667  0.70000000  1
  Na  Na8748  1  0.86666667  0.36666667  0.90000000  1
  Na  Na8749  1  0.86666667  0.56666667  0.10000000  1
  Na  Na8750  1  0.86666667  0.56666667  0.30000000  1
  Na  Na8751  1  0.86666667  0.56666667  0.50000000  1
  Na  Na8752  1  0.86666667  0.56666667  0.70000000  1
  Na  Na8753  1  0.86666667  0.56666667  0.90000000  1
  Na  Na8754  1  0.86666667  0.76666667  0.10000000  1
  Na  Na8755  1  0.86666667  0.76666667  0.30000000  1
  Na  Na8756  1  0.86666667  0.76666667  0.50000000  1
  Na  Na8757  1  0.86666667  0.76666667  0.70000000  1
  Na  Na8758  1  0.86666667  0.76666667  0.90000000  1
  Na  Na8759  1  0.86666667  0.96666667  0.10000000  1
  Na  Na8760  1  0.86666667  0.96666667  0.30000000  1
  Na  Na8761  1  0.86666667  0.96666667  0.50000000  1
  Na  Na8762  1  0.86666667  0.96666667  0.70000000  1
  Na  Na8763  1  0.86666667  0.96666667  0.90000000  1
  Na  Na8764  1  0.06666667  0.16666667  0.16666667  1
  Na  Na8765  1  0.06666667  0.16666667  0.56666667  1
  Na  Na8766  1  0.06666667  0.16666667  0.76666667  1
  Na  Na8767  1  0.06666667  0.16666667  0.96666667  1
  Na  Na8768  1  0.06666667  0.36666667  0.16666667  1
  Na  Na8769  1  0.06666667  0.36666667  0.36666667  1
  Na  Na8770  1  0.06666667  0.36666667  0.56666667  1
  Na  Na8771  1  0.06666667  0.36666667  0.76666667  1
  Na  Na8772  1  0.06666667  0.36666667  0.96666667  1
  Na  Na8773  1  0.06666667  0.56666667  0.16666667  1
  Na  Na8774  1  0.06666667  0.56666667  0.36666667  1
  Na  Na8775  1  0.06666667  0.56666667  0.56666667  1
  Na  Na8776  1  0.06666667  0.56666667  0.76666667  1
  Na  Na8777  1  0.06666667  0.56666667  0.96666667  1
  Na  Na8778  1  0.06666667  0.76666667  0.16666667  1
  Na  Na8779  1  0.06666667  0.76666667  0.36666667  1
  Na  Na8780  1  0.06666667  0.76666667  0.56666667  1
  Na  Na8781  1  0.06666667  0.76666667  0.76666667  1
  Na  Na8782  1  0.06666667  0.76666667  0.96666667  1
  Na  Na8783  1  0.06666667  0.96666667  0.16666667  1
  Na  Na8784  1  0.06666667  0.96666667  0.36666667  1
  Na  Na8785  1  0.06666667  0.96666667  0.56666667  1
  Na  Na8786  1  0.06666667  0.96666667  0.76666667  1
  Na  Na8787  1  0.06666667  0.96666667  0.96666667  1
  Na  Na8788  1  0.26666667  0.16666667  0.16666667  1
  Na  Na8789  1  0.26666667  0.16666667  0.36666667  1
  Na  Na8790  1  0.26666667  0.16666667  0.56666667  1
  Na  Na8791  1  0.26666667  0.16666667  0.76666667  1
  Na  Na8792  1  0.26666667  0.16666667  0.96666667  1
  Na  Na8793  1  0.26666667  0.36666667  0.16666667  1
  Na  Na8794  1  0.26666667  0.36666667  0.36666667  1
  Na  Na8795  1  0.26666667  0.36666667  0.56666667  1
  Na  Na8796  1  0.26666667  0.36666667  0.76666667  1
  Na  Na8797  1  0.26666667  0.36666667  0.96666667  1
  Na  Na8798  1  0.26666667  0.56666667  0.16666667  1
  Na  Na8799  1  0.26666667  0.56666667  0.36666667  1
  Na  Na8800  1  0.26666667  0.56666667  0.56666667  1
  Na  Na8801  1  0.26666667  0.56666667  0.76666667  1
  Na  Na8802  1  0.26666667  0.56666667  0.96666667  1
  Na  Na8803  1  0.26666667  0.76666667  0.16666667  1
  Na  Na8804  1  0.26666667  0.76666667  0.36666667  1
  Na  Na8805  1  0.26666667  0.76666667  0.56666667  1
  Na  Na8806  1  0.26666667  0.76666667  0.76666667  1
  Na  Na8807  1  0.26666667  0.76666667  0.96666667  1
  Na  Na8808  1  0.26666667  0.96666667  0.16666667  1
  Na  Na8809  1  0.26666667  0.96666667  0.36666667  1
  Na  Na8810  1  0.26666667  0.96666667  0.56666667  1
  Na  Na8811  1  0.26666667  0.96666667  0.76666667  1
  Na  Na8812  1  0.26666667  0.96666667  0.96666667  1
  Na  Na8813  1  0.46666667  0.16666667  0.16666667  1
  Na  Na8814  1  0.46666667  0.16666667  0.36666667  1
  Na  Na8815  1  0.46666667  0.16666667  0.56666667  1
  Na  Na8816  1  0.46666667  0.16666667  0.76666667  1
  Na  Na8817  1  0.46666667  0.16666667  0.96666667  1
  Na  Na8818  1  0.46666667  0.36666667  0.16666667  1
  Na  Na8819  1  0.46666667  0.36666667  0.36666667  1
  Na  Na8820  1  0.46666667  0.36666667  0.56666667  1
  Na  Na8821  1  0.46666667  0.36666667  0.76666667  1
  Na  Na8822  1  0.46666667  0.36666667  0.96666667  1
  Na  Na8823  1  0.46666667  0.56666667  0.16666667  1
  Na  Na8824  1  0.46666667  0.56666667  0.36666667  1
  Na  Na8825  1  0.46666667  0.56666667  0.56666667  1
  Na  Na8826  1  0.46666667  0.56666667  0.76666667  1
  Na  Na8827  1  0.46666667  0.56666667  0.96666667  1
  Na  Na8828  1  0.46666667  0.76666667  0.16666667  1
  Na  Na8829  1  0.46666667  0.76666667  0.36666667  1
  Na  Na8830  1  0.46666667  0.76666667  0.56666667  1
  Na  Na8831  1  0.46666667  0.76666667  0.76666667  1
  Na  Na8832  1  0.46666667  0.76666667  0.96666667  1
  Na  Na8833  1  0.46666667  0.96666667  0.16666667  1
  Na  Na8834  1  0.46666667  0.96666667  0.36666667  1
  Na  Na8835  1  0.46666667  0.96666667  0.56666667  1
  Na  Na8836  1  0.46666667  0.96666667  0.76666667  1
  Na  Na8837  1  0.46666667  0.96666667  0.96666667  1
  Na  Na8838  1  0.66666667  0.16666667  0.16666667  1
  Na  Na8839  1  0.66666667  0.16666667  0.36666667  1
  Na  Na8840  1  0.66666667  0.16666667  0.56666667  1
  Na  Na8841  1  0.66666667  0.16666667  0.76666667  1
  Na  Na8842  1  0.66666667  0.16666667  0.96666667  1
  Na  Na8843  1  0.66666667  0.36666667  0.16666667  1
  Na  Na8844  1  0.66666667  0.36666667  0.36666667  1
  Na  Na8845  1  0.66666667  0.36666667  0.56666667  1
  Na  Na8846  1  0.66666667  0.36666667  0.76666667  1
  Na  Na8847  1  0.66666667  0.36666667  0.96666667  1
  Na  Na8848  1  0.66666667  0.56666667  0.16666667  1
  Na  Na8849  1  0.66666667  0.56666667  0.36666667  1
  Na  Na8850  1  0.66666667  0.56666667  0.56666667  1
  Na  Na8851  1  0.66666667  0.56666667  0.76666667  1
  Na  Na8852  1  0.66666667  0.56666667  0.96666667  1
  Na  Na8853  1  0.66666667  0.76666667  0.16666667  1
  Na  Na8854  1  0.66666667  0.76666667  0.36666667  1
  Na  Na8855  1  0.66666667  0.76666667  0.56666667  1
  Na  Na8856  1  0.66666667  0.76666667  0.76666667  1
  Na  Na8857  1  0.66666667  0.76666667  0.96666667  1
  Na  Na8858  1  0.66666667  0.96666667  0.16666667  1
  Na  Na8859  1  0.66666667  0.96666667  0.36666667  1
  Na  Na8860  1  0.66666667  0.96666667  0.56666667  1
  Na  Na8861  1  0.66666667  0.96666667  0.76666667  1
  Na  Na8862  1  0.66666667  0.96666667  0.96666667  1
  Na  Na8863  1  0.86666667  0.16666667  0.16666667  1
  Na  Na8864  1  0.86666667  0.16666667  0.56666667  1
  Na  Na8865  1  0.86666667  0.16666667  0.76666667  1
  Na  Na8866  1  0.86666667  0.16666667  0.96666667  1
  Na  Na8867  1  0.86666667  0.36666667  0.16666667  1
  Na  Na8868  1  0.86666667  0.36666667  0.36666667  1
  Na  Na8869  1  0.86666667  0.36666667  0.56666667  1
  Na  Na8870  1  0.86666667  0.36666667  0.76666667  1
  Na  Na8871  1  0.86666667  0.36666667  0.96666667  1
  Na  Na8872  1  0.86666667  0.56666667  0.16666667  1
  Na  Na8873  1  0.86666667  0.56666667  0.36666667  1
  Na  Na8874  1  0.86666667  0.56666667  0.56666667  1
  Na  Na8875  1  0.86666667  0.56666667  0.76666667  1
  Na  Na8876  1  0.86666667  0.56666667  0.96666667  1
  Na  Na8877  1  0.86666667  0.76666667  0.16666667  1
  Na  Na8878  1  0.86666667  0.76666667  0.36666667  1
  Na  Na8879  1  0.86666667  0.76666667  0.56666667  1
  Na  Na8880  1  0.86666667  0.76666667  0.76666667  1
  Na  Na8881  1  0.86666667  0.76666667  0.96666667  1
  Na  Na8882  1  0.86666667  0.96666667  0.16666667  1
  Na  Na8883  1  0.86666667  0.96666667  0.36666667  1
  Na  Na8884  1  0.86666667  0.96666667  0.56666667  1
  Na  Na8885  1  0.86666667  0.96666667  0.76666667  1
  Na  Na8886  1  0.86666667  0.96666667  0.96666667  1
  Na  Na8887  1  0.13333333  0.03333333  0.03333333  1
  Na  Na8888  1  0.13333333  0.03333333  0.23333333  1
  Na  Na8889  1  0.13333333  0.03333333  0.43333333  1
  Na  Na8890  1  0.13333333  0.03333333  0.63333333  1
  Na  Na8891  1  0.13333333  0.03333333  0.83333333  1
  Na  Na8892  1  0.13333333  0.23333333  0.03333333  1
  Na  Na8893  1  0.13333333  0.23333333  0.23333333  1
  Na  Na8894  1  0.13333333  0.23333333  0.43333333  1
  Na  Na8895  1  0.13333333  0.23333333  0.63333333  1
  Na  Na8896  1  0.13333333  0.23333333  0.83333333  1
  Na  Na8897  1  0.13333333  0.43333333  0.03333333  1
  Na  Na8898  1  0.13333333  0.43333333  0.23333333  1
  Na  Na8899  1  0.13333333  0.43333333  0.43333333  1
  Na  Na8900  1  0.13333333  0.43333333  0.63333333  1
  Na  Na8901  1  0.13333333  0.43333333  0.83333333  1
  Na  Na8902  1  0.13333333  0.63333333  0.03333333  1
  Na  Na8903  1  0.13333333  0.63333333  0.23333333  1
  Na  Na8904  1  0.13333333  0.63333333  0.43333333  1
  Na  Na8905  1  0.13333333  0.63333333  0.63333333  1
  Na  Na8906  1  0.13333333  0.63333333  0.83333333  1
  Na  Na8907  1  0.13333333  0.83333333  0.03333333  1
  Na  Na8908  1  0.13333333  0.83333333  0.23333333  1
  Na  Na8909  1  0.13333333  0.83333333  0.43333333  1
  Na  Na8910  1  0.13333333  0.83333333  0.63333333  1
  Na  Na8911  1  0.13333333  0.83333333  0.83333333  1
  Na  Na8912  1  0.33333333  0.03333333  0.03333333  1
  Na  Na8913  1  0.33333333  0.03333333  0.23333333  1
  Na  Na8914  1  0.33333333  0.03333333  0.43333333  1
  Na  Na8915  1  0.33333333  0.03333333  0.63333333  1
  Na  Na8916  1  0.33333333  0.03333333  0.83333333  1
  Na  Na8917  1  0.33333333  0.23333333  0.03333333  1
  Na  Na8918  1  0.33333333  0.23333333  0.23333333  1
  Na  Na8919  1  0.33333333  0.23333333  0.43333333  1
  Na  Na8920  1  0.33333333  0.23333333  0.63333333  1
  Na  Na8921  1  0.33333333  0.23333333  0.83333333  1
  Na  Na8922  1  0.33333333  0.43333333  0.03333333  1
  Na  Na8923  1  0.33333333  0.43333333  0.23333333  1
  Na  Na8924  1  0.33333333  0.43333333  0.43333333  1
  Na  Na8925  1  0.33333333  0.43333333  0.63333333  1
  Na  Na8926  1  0.33333333  0.43333333  0.83333333  1
  Na  Na8927  1  0.33333333  0.63333333  0.03333333  1
  Na  Na8928  1  0.33333333  0.63333333  0.23333333  1
  Na  Na8929  1  0.33333333  0.63333333  0.43333333  1
  Na  Na8930  1  0.33333333  0.63333333  0.63333333  1
  Na  Na8931  1  0.33333333  0.63333333  0.83333333  1
  Na  Na8932  1  0.33333333  0.83333333  0.03333333  1
  Na  Na8933  1  0.33333333  0.83333333  0.23333333  1
  Na  Na8934  1  0.33333333  0.83333333  0.43333333  1
  Na  Na8935  1  0.33333333  0.83333333  0.63333333  1
  Na  Na8936  1  0.33333333  0.83333333  0.83333333  1
  Na  Na8937  1  0.53333333  0.03333333  0.03333333  1
  Na  Na8938  1  0.53333333  0.03333333  0.23333333  1
  Na  Na8939  1  0.53333333  0.03333333  0.43333333  1
  Na  Na8940  1  0.53333333  0.03333333  0.63333333  1
  Na  Na8941  1  0.53333333  0.03333333  0.83333333  1
  Na  Na8942  1  0.53333333  0.23333333  0.03333333  1
  Na  Na8943  1  0.53333333  0.23333333  0.23333333  1
  Na  Na8944  1  0.53333333  0.23333333  0.43333333  1
  Na  Na8945  1  0.53333333  0.23333333  0.63333333  1
  Na  Na8946  1  0.53333333  0.23333333  0.83333333  1
  Na  Na8947  1  0.53333333  0.43333333  0.03333333  1
  Na  Na8948  1  0.53333333  0.43333333  0.23333333  1
  Na  Na8949  1  0.53333333  0.43333333  0.43333333  1
  Na  Na8950  1  0.53333333  0.43333333  0.63333333  1
  Na  Na8951  1  0.53333333  0.43333333  0.83333333  1
  Na  Na8952  1  0.53333333  0.63333333  0.03333333  1
  Na  Na8953  1  0.53333333  0.63333333  0.23333333  1
  Na  Na8954  1  0.53333333  0.63333333  0.43333333  1
  Na  Na8955  1  0.53333333  0.63333333  0.63333333  1
  Na  Na8956  1  0.53333333  0.63333333  0.83333333  1
  Na  Na8957  1  0.53333333  0.83333333  0.03333333  1
  Na  Na8958  1  0.53333333  0.83333333  0.23333333  1
  Na  Na8959  1  0.53333333  0.83333333  0.43333333  1
  Na  Na8960  1  0.53333333  0.83333333  0.63333333  1
  Na  Na8961  1  0.53333333  0.83333333  0.83333333  1
  Na  Na8962  1  0.73333333  0.03333333  0.03333333  1
  Na  Na8963  1  0.73333333  0.03333333  0.23333333  1
  Na  Na8964  1  0.73333333  0.03333333  0.43333333  1
  Na  Na8965  1  0.73333333  0.03333333  0.63333333  1
  Na  Na8966  1  0.73333333  0.03333333  0.83333333  1
  Na  Na8967  1  0.73333333  0.23333333  0.03333333  1
  Na  Na8968  1  0.73333333  0.23333333  0.23333333  1
  Na  Na8969  1  0.73333333  0.23333333  0.43333333  1
  Na  Na8970  1  0.73333333  0.23333333  0.63333333  1
  Na  Na8971  1  0.73333333  0.23333333  0.83333333  1
  Na  Na8972  1  0.73333333  0.43333333  0.03333333  1
  Na  Na8973  1  0.73333333  0.43333333  0.23333333  1
  Na  Na8974  1  0.73333333  0.43333333  0.43333333  1
  Na  Na8975  1  0.73333333  0.43333333  0.63333333  1
  Na  Na8976  1  0.73333333  0.43333333  0.83333333  1
  Na  Na8977  1  0.73333333  0.63333333  0.03333333  1
  Na  Na8978  1  0.73333333  0.63333333  0.23333333  1
  Na  Na8979  1  0.73333333  0.63333333  0.43333333  1
  Na  Na8980  1  0.73333333  0.63333333  0.63333333  1
  Na  Na8981  1  0.73333333  0.63333333  0.83333333  1
  Na  Na8982  1  0.73333333  0.83333333  0.03333333  1
  Na  Na8983  1  0.73333333  0.83333333  0.23333333  1
  Na  Na8984  1  0.73333333  0.83333333  0.43333333  1
  Na  Na8985  1  0.73333333  0.83333333  0.63333333  1
  Na  Na8986  1  0.73333333  0.83333333  0.83333333  1
  Na  Na8987  1  0.93333333  0.03333333  0.03333333  1
  Na  Na8988  1  0.93333333  0.03333333  0.23333333  1
  Na  Na8989  1  0.93333333  0.03333333  0.43333333  1
  Na  Na8990  1  0.93333333  0.03333333  0.63333333  1
  Na  Na8991  1  0.93333333  0.03333333  0.83333333  1
  Na  Na8992  1  0.93333333  0.23333333  0.03333333  1
  Na  Na8993  1  0.93333333  0.23333333  0.23333333  1
  Na  Na8994  1  0.93333333  0.23333333  0.43333333  1
  Na  Na8995  1  0.93333333  0.23333333  0.63333333  1
  Na  Na8996  1  0.93333333  0.23333333  0.83333333  1
  Na  Na8997  1  0.93333333  0.43333333  0.03333333  1
  Na  Na8998  1  0.93333333  0.43333333  0.23333333  1
  Na  Na8999  1  0.93333333  0.43333333  0.43333333  1
  Na  Na9000  1  0.93333333  0.43333333  0.63333333  1
  Na  Na9001  1  0.93333333  0.43333333  0.83333333  1
  Na  Na9002  1  0.93333333  0.63333333  0.03333333  1
  Na  Na9003  1  0.93333333  0.63333333  0.23333333  1
  Na  Na9004  1  0.93333333  0.63333333  0.43333333  1
  Na  Na9005  1  0.93333333  0.63333333  0.63333333  1
  Na  Na9006  1  0.93333333  0.63333333  0.83333333  1
  Na  Na9007  1  0.93333333  0.83333333  0.03333333  1
  Na  Na9008  1  0.93333333  0.83333333  0.23333333  1
  Na  Na9009  1  0.93333333  0.83333333  0.43333333  1
  Na  Na9010  1  0.93333333  0.83333333  0.63333333  1
  Na  Na9011  1  0.93333333  0.83333333  0.83333333  1
  Na  Na9012  1  0.13333333  0.03333333  0.30000000  1
  Na  Na9013  1  0.13333333  0.03333333  0.50000000  1
  Na  Na9014  1  0.13333333  0.03333333  0.70000000  1
  Na  Na9015  1  0.13333333  0.03333333  0.90000000  1
  Na  Na9016  1  0.13333333  0.23333333  0.10000000  1
  Na  Na9017  1  0.13333333  0.23333333  0.30000000  1
  Na  Na9018  1  0.13333333  0.23333333  0.50000000  1
  Na  Na9019  1  0.13333333  0.23333333  0.70000000  1
  Na  Na9020  1  0.13333333  0.23333333  0.90000000  1
  Na  Na9021  1  0.13333333  0.43333333  0.10000000  1
  Na  Na9022  1  0.13333333  0.43333333  0.30000000  1
  Na  Na9023  1  0.13333333  0.43333333  0.50000000  1
  Na  Na9024  1  0.13333333  0.43333333  0.70000000  1
  Na  Na9025  1  0.13333333  0.43333333  0.90000000  1
  Na  Na9026  1  0.13333333  0.63333333  0.10000000  1
  Na  Na9027  1  0.13333333  0.63333333  0.30000000  1
  Na  Na9028  1  0.13333333  0.63333333  0.50000000  1
  Na  Na9029  1  0.13333333  0.63333333  0.70000000  1
  Na  Na9030  1  0.13333333  0.63333333  0.90000000  1
  Na  Na9031  1  0.13333333  0.83333333  0.10000000  1
  Na  Na9032  1  0.13333333  0.83333333  0.30000000  1
  Na  Na9033  1  0.13333333  0.83333333  0.50000000  1
  Na  Na9034  1  0.13333333  0.83333333  0.70000000  1
  Na  Na9035  1  0.13333333  0.83333333  0.90000000  1
  Na  Na9036  1  0.33333333  0.03333333  0.10000000  1
  Na  Na9037  1  0.33333333  0.03333333  0.30000000  1
  Na  Na9038  1  0.33333333  0.03333333  0.50000000  1
  Na  Na9039  1  0.33333333  0.03333333  0.70000000  1
  Na  Na9040  1  0.33333333  0.03333333  0.90000000  1
  Na  Na9041  1  0.33333333  0.23333333  0.10000000  1
  Na  Na9042  1  0.33333333  0.23333333  0.30000000  1
  Na  Na9043  1  0.33333333  0.23333333  0.50000000  1
  Na  Na9044  1  0.33333333  0.23333333  0.70000000  1
  Na  Na9045  1  0.33333333  0.23333333  0.90000000  1
  Na  Na9046  1  0.33333333  0.43333333  0.10000000  1
  Na  Na9047  1  0.33333333  0.43333333  0.30000000  1
  Na  Na9048  1  0.33333333  0.43333333  0.50000000  1
  Na  Na9049  1  0.33333333  0.43333333  0.70000000  1
  Na  Na9050  1  0.33333333  0.43333333  0.90000000  1
  Na  Na9051  1  0.33333333  0.63333333  0.10000000  1
  Na  Na9052  1  0.33333333  0.63333333  0.30000000  1
  Na  Na9053  1  0.33333333  0.63333333  0.50000000  1
  Na  Na9054  1  0.33333333  0.63333333  0.70000000  1
  Na  Na9055  1  0.33333333  0.63333333  0.90000000  1
  Na  Na9056  1  0.33333333  0.83333333  0.10000000  1
  Na  Na9057  1  0.33333333  0.83333333  0.30000000  1
  Na  Na9058  1  0.33333333  0.83333333  0.50000000  1
  Na  Na9059  1  0.33333333  0.83333333  0.70000000  1
  Na  Na9060  1  0.33333333  0.83333333  0.90000000  1
  Na  Na9061  1  0.53333333  0.03333333  0.10000000  1
  Na  Na9062  1  0.53333333  0.03333333  0.30000000  1
  Na  Na9063  1  0.53333333  0.03333333  0.50000000  1
  Na  Na9064  1  0.53333333  0.03333333  0.70000000  1
  Na  Na9065  1  0.53333333  0.03333333  0.90000000  1
  Na  Na9066  1  0.53333333  0.23333333  0.10000000  1
  Na  Na9067  1  0.53333333  0.23333333  0.30000000  1
  Na  Na9068  1  0.53333333  0.23333333  0.50000000  1
  Na  Na9069  1  0.53333333  0.23333333  0.70000000  1
  Na  Na9070  1  0.53333333  0.23333333  0.90000000  1
  Na  Na9071  1  0.53333333  0.43333333  0.10000000  1
  Na  Na9072  1  0.53333333  0.43333333  0.30000000  1
  Na  Na9073  1  0.53333333  0.43333333  0.50000000  1
  Na  Na9074  1  0.53333333  0.43333333  0.70000000  1
  Na  Na9075  1  0.53333333  0.43333333  0.90000000  1
  Na  Na9076  1  0.53333333  0.63333333  0.10000000  1
  Na  Na9077  1  0.53333333  0.63333333  0.30000000  1
  Na  Na9078  1  0.53333333  0.63333333  0.70000000  1
  Na  Na9079  1  0.53333333  0.63333333  0.90000000  1
  Na  Na9080  1  0.53333333  0.83333333  0.10000000  1
  Na  Na9081  1  0.53333333  0.83333333  0.30000000  1
  Na  Na9082  1  0.53333333  0.83333333  0.50000000  1
  Na  Na9083  1  0.53333333  0.83333333  0.70000000  1
  Na  Na9084  1  0.53333333  0.83333333  0.90000000  1
  Na  Na9085  1  0.73333333  0.03333333  0.10000000  1
  Na  Na9086  1  0.73333333  0.03333333  0.30000000  1
  Na  Na9087  1  0.73333333  0.03333333  0.50000000  1
  Na  Na9088  1  0.73333333  0.03333333  0.70000000  1
  Na  Na9089  1  0.73333333  0.23333333  0.10000000  1
  Na  Na9090  1  0.73333333  0.23333333  0.30000000  1
  Na  Na9091  1  0.73333333  0.23333333  0.50000000  1
  Na  Na9092  1  0.73333333  0.23333333  0.70000000  1
  Na  Na9093  1  0.73333333  0.23333333  0.90000000  1
  Na  Na9094  1  0.73333333  0.43333333  0.10000000  1
  Na  Na9095  1  0.73333333  0.43333333  0.30000000  1
  Na  Na9096  1  0.73333333  0.43333333  0.50000000  1
  Na  Na9097  1  0.73333333  0.43333333  0.70000000  1
  Na  Na9098  1  0.73333333  0.43333333  0.90000000  1
  Na  Na9099  1  0.73333333  0.63333333  0.10000000  1
  Na  Na9100  1  0.73333333  0.63333333  0.30000000  1
  Na  Na9101  1  0.73333333  0.63333333  0.50000000  1
  Na  Na9102  1  0.73333333  0.63333333  0.70000000  1
  Na  Na9103  1  0.73333333  0.63333333  0.90000000  1
  Na  Na9104  1  0.73333333  0.83333333  0.10000000  1
  Na  Na9105  1  0.73333333  0.83333333  0.30000000  1
  Na  Na9106  1  0.73333333  0.83333333  0.50000000  1
  Na  Na9107  1  0.73333333  0.83333333  0.70000000  1
  Na  Na9108  1  0.73333333  0.83333333  0.90000000  1
  Na  Na9109  1  0.93333333  0.03333333  0.10000000  1
  Na  Na9110  1  0.93333333  0.03333333  0.30000000  1
  Na  Na9111  1  0.93333333  0.03333333  0.50000000  1
  Na  Na9112  1  0.93333333  0.03333333  0.70000000  1
  Na  Na9113  1  0.93333333  0.03333333  0.90000000  1
  Na  Na9114  1  0.93333333  0.23333333  0.10000000  1
  Na  Na9115  1  0.93333333  0.23333333  0.30000000  1
  Na  Na9116  1  0.93333333  0.23333333  0.50000000  1
  Na  Na9117  1  0.93333333  0.23333333  0.70000000  1
  Na  Na9118  1  0.93333333  0.23333333  0.90000000  1
  Na  Na9119  1  0.93333333  0.43333333  0.10000000  1
  Na  Na9120  1  0.93333333  0.43333333  0.50000000  1
  Na  Na9121  1  0.93333333  0.43333333  0.70000000  1
  Na  Na9122  1  0.93333333  0.43333333  0.90000000  1
  Na  Na9123  1  0.93333333  0.63333333  0.10000000  1
  Na  Na9124  1  0.93333333  0.63333333  0.30000000  1
  Na  Na9125  1  0.93333333  0.63333333  0.50000000  1
  Na  Na9126  1  0.93333333  0.63333333  0.70000000  1
  Na  Na9127  1  0.93333333  0.63333333  0.90000000  1
  Na  Na9128  1  0.93333333  0.83333333  0.10000000  1
  Na  Na9129  1  0.93333333  0.83333333  0.30000000  1
  Na  Na9130  1  0.93333333  0.83333333  0.50000000  1
  Na  Na9131  1  0.93333333  0.83333333  0.70000000  1
  Na  Na9132  1  0.93333333  0.83333333  0.90000000  1
  Na  Na9133  1  0.13333333  0.03333333  0.16666667  1
  Na  Na9134  1  0.13333333  0.03333333  0.36666667  1
  Na  Na9135  1  0.13333333  0.03333333  0.56666667  1
  Na  Na9136  1  0.13333333  0.03333333  0.76666667  1
  Na  Na9137  1  0.13333333  0.03333333  0.96666667  1
  Na  Na9138  1  0.13333333  0.23333333  0.16666667  1
  Na  Na9139  1  0.13333333  0.23333333  0.36666667  1
  Na  Na9140  1  0.13333333  0.23333333  0.56666667  1
  Na  Na9141  1  0.13333333  0.23333333  0.76666667  1
  Na  Na9142  1  0.13333333  0.23333333  0.96666667  1
  Na  Na9143  1  0.13333333  0.43333333  0.16666667  1
  Na  Na9144  1  0.13333333  0.43333333  0.36666667  1
  Na  Na9145  1  0.13333333  0.43333333  0.56666667  1
  Na  Na9146  1  0.13333333  0.43333333  0.76666667  1
  Na  Na9147  1  0.13333333  0.43333333  0.96666667  1
  Na  Na9148  1  0.13333333  0.63333333  0.16666667  1
  Na  Na9149  1  0.13333333  0.63333333  0.36666667  1
  Na  Na9150  1  0.13333333  0.63333333  0.56666667  1
  Na  Na9151  1  0.13333333  0.63333333  0.76666667  1
  Na  Na9152  1  0.13333333  0.63333333  0.96666667  1
  Na  Na9153  1  0.13333333  0.83333333  0.16666667  1
  Na  Na9154  1  0.13333333  0.83333333  0.36666667  1
  Na  Na9155  1  0.13333333  0.83333333  0.56666667  1
  Na  Na9156  1  0.13333333  0.83333333  0.76666667  1
  Na  Na9157  1  0.13333333  0.83333333  0.96666667  1
  Na  Na9158  1  0.33333333  0.03333333  0.16666667  1
  Na  Na9159  1  0.33333333  0.03333333  0.36666667  1
  Na  Na9160  1  0.33333333  0.03333333  0.56666667  1
  Na  Na9161  1  0.33333333  0.03333333  0.76666667  1
  Na  Na9162  1  0.33333333  0.03333333  0.96666667  1
  Na  Na9163  1  0.33333333  0.23333333  0.16666667  1
  Na  Na9164  1  0.33333333  0.23333333  0.36666667  1
  Na  Na9165  1  0.33333333  0.23333333  0.56666667  1
  Na  Na9166  1  0.33333333  0.23333333  0.76666667  1
  Na  Na9167  1  0.33333333  0.23333333  0.96666667  1
  Na  Na9168  1  0.33333333  0.43333333  0.16666667  1
  Na  Na9169  1  0.33333333  0.43333333  0.36666667  1
  Na  Na9170  1  0.33333333  0.43333333  0.56666667  1
  Na  Na9171  1  0.33333333  0.43333333  0.76666667  1
  Na  Na9172  1  0.33333333  0.43333333  0.96666667  1
  Na  Na9173  1  0.33333333  0.63333333  0.16666667  1
  Na  Na9174  1  0.33333333  0.63333333  0.36666667  1
  Na  Na9175  1  0.33333333  0.63333333  0.56666667  1
  Na  Na9176  1  0.33333333  0.63333333  0.76666667  1
  Na  Na9177  1  0.33333333  0.63333333  0.96666667  1
  Na  Na9178  1  0.33333333  0.83333333  0.16666667  1
  Na  Na9179  1  0.33333333  0.83333333  0.36666667  1
  Na  Na9180  1  0.33333333  0.83333333  0.56666667  1
  Na  Na9181  1  0.33333333  0.83333333  0.76666667  1
  Na  Na9182  1  0.33333333  0.83333333  0.96666667  1
  Na  Na9183  1  0.53333333  0.03333333  0.16666667  1
  Na  Na9184  1  0.53333333  0.03333333  0.36666667  1
  Na  Na9185  1  0.53333333  0.03333333  0.56666667  1
  Na  Na9186  1  0.53333333  0.03333333  0.76666667  1
  Na  Na9187  1  0.53333333  0.03333333  0.96666667  1
  Na  Na9188  1  0.53333333  0.23333333  0.16666667  1
  Na  Na9189  1  0.53333333  0.23333333  0.36666667  1
  Na  Na9190  1  0.53333333  0.23333333  0.56666667  1
  Na  Na9191  1  0.53333333  0.23333333  0.76666667  1
  Na  Na9192  1  0.53333333  0.23333333  0.96666667  1
  Na  Na9193  1  0.53333333  0.43333333  0.16666667  1
  Na  Na9194  1  0.53333333  0.43333333  0.36666667  1
  Na  Na9195  1  0.53333333  0.43333333  0.56666667  1
  Na  Na9196  1  0.53333333  0.43333333  0.76666667  1
  Na  Na9197  1  0.53333333  0.43333333  0.96666667  1
  Na  Na9198  1  0.53333333  0.63333333  0.16666667  1
  Na  Na9199  1  0.53333333  0.63333333  0.36666667  1
  Na  Na9200  1  0.53333333  0.63333333  0.56666667  1
  Na  Na9201  1  0.53333333  0.63333333  0.76666667  1
  Na  Na9202  1  0.53333333  0.63333333  0.96666667  1
  Na  Na9203  1  0.53333333  0.83333333  0.16666667  1
  Na  Na9204  1  0.53333333  0.83333333  0.36666667  1
  Na  Na9205  1  0.53333333  0.83333333  0.56666667  1
  Na  Na9206  1  0.53333333  0.83333333  0.76666667  1
  Na  Na9207  1  0.53333333  0.83333333  0.96666667  1
  Na  Na9208  1  0.73333333  0.03333333  0.16666667  1
  Na  Na9209  1  0.73333333  0.03333333  0.36666667  1
  Na  Na9210  1  0.73333333  0.03333333  0.56666667  1
  Na  Na9211  1  0.73333333  0.03333333  0.76666667  1
  Na  Na9212  1  0.73333333  0.03333333  0.96666667  1
  Na  Na9213  1  0.73333333  0.23333333  0.16666667  1
  Na  Na9214  1  0.73333333  0.23333333  0.36666667  1
  Na  Na9215  1  0.73333333  0.23333333  0.56666667  1
  Na  Na9216  1  0.73333333  0.23333333  0.76666667  1
  Na  Na9217  1  0.73333333  0.23333333  0.96666667  1
  Na  Na9218  1  0.73333333  0.43333333  0.16666667  1
  Na  Na9219  1  0.73333333  0.43333333  0.36666667  1
  Na  Na9220  1  0.73333333  0.43333333  0.56666667  1
  Na  Na9221  1  0.73333333  0.43333333  0.76666667  1
  Na  Na9222  1  0.73333333  0.63333333  0.16666667  1
  Na  Na9223  1  0.73333333  0.63333333  0.36666667  1
  Na  Na9224  1  0.73333333  0.63333333  0.56666667  1
  Na  Na9225  1  0.73333333  0.63333333  0.76666667  1
  Na  Na9226  1  0.73333333  0.63333333  0.96666667  1
  Na  Na9227  1  0.73333333  0.83333333  0.16666667  1
  Na  Na9228  1  0.73333333  0.83333333  0.36666667  1
  Na  Na9229  1  0.73333333  0.83333333  0.56666667  1
  Na  Na9230  1  0.73333333  0.83333333  0.76666667  1
  Na  Na9231  1  0.73333333  0.83333333  0.96666667  1
  Na  Na9232  1  0.93333333  0.03333333  0.36666667  1
  Na  Na9233  1  0.93333333  0.03333333  0.56666667  1
  Na  Na9234  1  0.93333333  0.03333333  0.76666667  1
  Na  Na9235  1  0.93333333  0.03333333  0.96666667  1
  Na  Na9236  1  0.93333333  0.23333333  0.16666667  1
  Na  Na9237  1  0.93333333  0.23333333  0.36666667  1
  Na  Na9238  1  0.93333333  0.23333333  0.56666667  1
  Na  Na9239  1  0.93333333  0.23333333  0.76666667  1
  Na  Na9240  1  0.93333333  0.23333333  0.96666667  1
  Na  Na9241  1  0.93333333  0.43333333  0.16666667  1
  Na  Na9242  1  0.93333333  0.43333333  0.36666667  1
  Na  Na9243  1  0.93333333  0.43333333  0.56666667  1
  Na  Na9244  1  0.93333333  0.43333333  0.76666667  1
  Na  Na9245  1  0.93333333  0.43333333  0.96666667  1
  Na  Na9246  1  0.93333333  0.63333333  0.16666667  1
  Na  Na9247  1  0.93333333  0.63333333  0.36666667  1
  Na  Na9248  1  0.93333333  0.63333333  0.56666667  1
  Na  Na9249  1  0.93333333  0.63333333  0.76666667  1
  Na  Na9250  1  0.93333333  0.63333333  0.96666667  1
  Na  Na9251  1  0.93333333  0.83333333  0.16666667  1
  Na  Na9252  1  0.93333333  0.83333333  0.36666667  1
  Na  Na9253  1  0.93333333  0.83333333  0.56666667  1
  Na  Na9254  1  0.93333333  0.83333333  0.76666667  1
  Na  Na9255  1  0.93333333  0.83333333  0.96666667  1
  Na  Na9256  1  0.13333333  0.10000000  0.03333333  1
  Na  Na9257  1  0.13333333  0.10000000  0.23333333  1
  Na  Na9258  1  0.13333333  0.10000000  0.43333333  1
  Na  Na9259  1  0.13333333  0.10000000  0.63333333  1
  Na  Na9260  1  0.13333333  0.10000000  0.83333333  1
  Na  Na9261  1  0.13333333  0.30000000  0.03333333  1
  Na  Na9262  1  0.13333333  0.30000000  0.23333333  1
  Na  Na9263  1  0.13333333  0.30000000  0.43333333  1
  Na  Na9264  1  0.13333333  0.30000000  0.63333333  1
  Na  Na9265  1  0.13333333  0.30000000  0.83333333  1
  Na  Na9266  1  0.13333333  0.50000000  0.03333333  1
  Na  Na9267  1  0.13333333  0.50000000  0.23333333  1
  Na  Na9268  1  0.13333333  0.50000000  0.43333333  1
  Na  Na9269  1  0.13333333  0.50000000  0.63333333  1
  Na  Na9270  1  0.13333333  0.50000000  0.83333333  1
  Na  Na9271  1  0.13333333  0.70000000  0.03333333  1
  Na  Na9272  1  0.13333333  0.70000000  0.23333333  1
  Na  Na9273  1  0.13333333  0.70000000  0.43333333  1
  Na  Na9274  1  0.13333333  0.70000000  0.63333333  1
  Na  Na9275  1  0.13333333  0.70000000  0.83333333  1
  Na  Na9276  1  0.13333333  0.90000000  0.03333333  1
  Na  Na9277  1  0.13333333  0.90000000  0.23333333  1
  Na  Na9278  1  0.13333333  0.90000000  0.43333333  1
  Na  Na9279  1  0.13333333  0.90000000  0.63333333  1
  Na  Na9280  1  0.13333333  0.90000000  0.83333333  1
  Na  Na9281  1  0.33333333  0.10000000  0.03333333  1
  Na  Na9282  1  0.33333333  0.10000000  0.23333333  1
  Na  Na9283  1  0.33333333  0.10000000  0.43333333  1
  Na  Na9284  1  0.33333333  0.10000000  0.63333333  1
  Na  Na9285  1  0.33333333  0.10000000  0.83333333  1
  Na  Na9286  1  0.33333333  0.30000000  0.03333333  1
  Na  Na9287  1  0.33333333  0.30000000  0.23333333  1
  Na  Na9288  1  0.33333333  0.30000000  0.43333333  1
  Na  Na9289  1  0.33333333  0.30000000  0.63333333  1
  Na  Na9290  1  0.33333333  0.30000000  0.83333333  1
  Na  Na9291  1  0.33333333  0.50000000  0.03333333  1
  Na  Na9292  1  0.33333333  0.50000000  0.23333333  1
  Na  Na9293  1  0.33333333  0.50000000  0.43333333  1
  Na  Na9294  1  0.33333333  0.50000000  0.63333333  1
  Na  Na9295  1  0.33333333  0.50000000  0.83333333  1
  Na  Na9296  1  0.33333333  0.70000000  0.03333333  1
  Na  Na9297  1  0.33333333  0.70000000  0.23333333  1
  Na  Na9298  1  0.33333333  0.70000000  0.43333333  1
  Na  Na9299  1  0.33333333  0.70000000  0.63333333  1
  Na  Na9300  1  0.33333333  0.70000000  0.83333333  1
  Na  Na9301  1  0.33333333  0.90000000  0.03333333  1
  Na  Na9302  1  0.33333333  0.90000000  0.23333333  1
  Na  Na9303  1  0.33333333  0.90000000  0.43333333  1
  Na  Na9304  1  0.33333333  0.90000000  0.63333333  1
  Na  Na9305  1  0.33333333  0.90000000  0.83333333  1
  Na  Na9306  1  0.53333333  0.10000000  0.03333333  1
  Na  Na9307  1  0.53333333  0.10000000  0.23333333  1
  Na  Na9308  1  0.53333333  0.10000000  0.43333333  1
  Na  Na9309  1  0.53333333  0.10000000  0.63333333  1
  Na  Na9310  1  0.53333333  0.10000000  0.83333333  1
  Na  Na9311  1  0.53333333  0.30000000  0.03333333  1
  Na  Na9312  1  0.53333333  0.30000000  0.23333333  1
  Na  Na9313  1  0.53333333  0.30000000  0.43333333  1
  Na  Na9314  1  0.53333333  0.30000000  0.63333333  1
  Na  Na9315  1  0.53333333  0.30000000  0.83333333  1
  Na  Na9316  1  0.53333333  0.50000000  0.03333333  1
  Na  Na9317  1  0.53333333  0.50000000  0.23333333  1
  Na  Na9318  1  0.53333333  0.50000000  0.43333333  1
  Na  Na9319  1  0.53333333  0.50000000  0.63333333  1
  Na  Na9320  1  0.53333333  0.50000000  0.83333333  1
  Na  Na9321  1  0.53333333  0.70000000  0.03333333  1
  Na  Na9322  1  0.53333333  0.70000000  0.23333333  1
  Na  Na9323  1  0.53333333  0.70000000  0.43333333  1
  Na  Na9324  1  0.53333333  0.70000000  0.63333333  1
  Na  Na9325  1  0.53333333  0.70000000  0.83333333  1
  Na  Na9326  1  0.53333333  0.90000000  0.03333333  1
  Na  Na9327  1  0.53333333  0.90000000  0.23333333  1
  Na  Na9328  1  0.53333333  0.90000000  0.43333333  1
  Na  Na9329  1  0.53333333  0.90000000  0.63333333  1
  Na  Na9330  1  0.53333333  0.90000000  0.83333333  1
  Na  Na9331  1  0.73333333  0.10000000  0.03333333  1
  Na  Na9332  1  0.73333333  0.10000000  0.23333333  1
  Na  Na9333  1  0.73333333  0.10000000  0.43333333  1
  Na  Na9334  1  0.73333333  0.10000000  0.63333333  1
  Na  Na9335  1  0.73333333  0.10000000  0.83333333  1
  Na  Na9336  1  0.73333333  0.30000000  0.03333333  1
  Na  Na9337  1  0.73333333  0.30000000  0.23333333  1
  Na  Na9338  1  0.73333333  0.30000000  0.43333333  1
  Na  Na9339  1  0.73333333  0.30000000  0.63333333  1
  Na  Na9340  1  0.73333333  0.30000000  0.83333333  1
  Na  Na9341  1  0.73333333  0.50000000  0.03333333  1
  Na  Na9342  1  0.73333333  0.50000000  0.23333333  1
  Na  Na9343  1  0.73333333  0.50000000  0.43333333  1
  Na  Na9344  1  0.73333333  0.50000000  0.63333333  1
  Na  Na9345  1  0.73333333  0.50000000  0.83333333  1
  Na  Na9346  1  0.73333333  0.70000000  0.03333333  1
  Na  Na9347  1  0.73333333  0.70000000  0.23333333  1
  Na  Na9348  1  0.73333333  0.70000000  0.43333333  1
  Na  Na9349  1  0.73333333  0.70000000  0.63333333  1
  Na  Na9350  1  0.73333333  0.70000000  0.83333333  1
  Na  Na9351  1  0.73333333  0.90000000  0.03333333  1
  Na  Na9352  1  0.73333333  0.90000000  0.23333333  1
  Na  Na9353  1  0.73333333  0.90000000  0.43333333  1
  Na  Na9354  1  0.73333333  0.90000000  0.63333333  1
  Na  Na9355  1  0.73333333  0.90000000  0.83333333  1
  Na  Na9356  1  0.93333333  0.10000000  0.03333333  1
  Na  Na9357  1  0.93333333  0.10000000  0.23333333  1
  Na  Na9358  1  0.93333333  0.10000000  0.43333333  1
  Na  Na9359  1  0.93333333  0.10000000  0.63333333  1
  Na  Na9360  1  0.93333333  0.10000000  0.83333333  1
  Na  Na9361  1  0.93333333  0.30000000  0.03333333  1
  Na  Na9362  1  0.93333333  0.30000000  0.23333333  1
  Na  Na9363  1  0.93333333  0.30000000  0.43333333  1
  Na  Na9364  1  0.93333333  0.30000000  0.63333333  1
  Na  Na9365  1  0.93333333  0.30000000  0.83333333  1
  Na  Na9366  1  0.93333333  0.50000000  0.03333333  1
  Na  Na9367  1  0.93333333  0.50000000  0.23333333  1
  Na  Na9368  1  0.93333333  0.50000000  0.43333333  1
  Na  Na9369  1  0.93333333  0.50000000  0.63333333  1
  Na  Na9370  1  0.93333333  0.50000000  0.83333333  1
  Na  Na9371  1  0.93333333  0.70000000  0.03333333  1
  Na  Na9372  1  0.93333333  0.70000000  0.23333333  1
  Na  Na9373  1  0.93333333  0.70000000  0.43333333  1
  Na  Na9374  1  0.93333333  0.70000000  0.63333333  1
  Na  Na9375  1  0.93333333  0.70000000  0.83333333  1
  Na  Na9376  1  0.93333333  0.90000000  0.03333333  1
  Na  Na9377  1  0.93333333  0.90000000  0.23333333  1
  Na  Na9378  1  0.93333333  0.90000000  0.43333333  1
  Na  Na9379  1  0.93333333  0.90000000  0.63333333  1
  Na  Na9380  1  0.93333333  0.90000000  0.83333333  1
  Na  Na9381  1  0.13333333  0.10000000  0.10000000  1
  Na  Na9382  1  0.13333333  0.10000000  0.30000000  1
  Na  Na9383  1  0.13333333  0.10000000  0.50000000  1
  Na  Na9384  1  0.13333333  0.10000000  0.70000000  1
  Na  Na9385  1  0.13333333  0.10000000  0.90000000  1
  Na  Na9386  1  0.13333333  0.30000000  0.10000000  1
  Na  Na9387  1  0.13333333  0.30000000  0.30000000  1
  Na  Na9388  1  0.13333333  0.30000000  0.50000000  1
  Na  Na9389  1  0.13333333  0.30000000  0.70000000  1
  Na  Na9390  1  0.13333333  0.30000000  0.90000000  1
  Na  Na9391  1  0.13333333  0.50000000  0.10000000  1
  Na  Na9392  1  0.13333333  0.50000000  0.30000000  1
  Na  Na9393  1  0.13333333  0.50000000  0.50000000  1
  Na  Na9394  1  0.13333333  0.50000000  0.70000000  1
  Na  Na9395  1  0.13333333  0.50000000  0.90000000  1
  Na  Na9396  1  0.13333333  0.70000000  0.10000000  1
  Na  Na9397  1  0.13333333  0.70000000  0.30000000  1
  Na  Na9398  1  0.13333333  0.70000000  0.50000000  1
  Na  Na9399  1  0.13333333  0.70000000  0.70000000  1
  Na  Na9400  1  0.13333333  0.70000000  0.90000000  1
  Na  Na9401  1  0.13333333  0.90000000  0.10000000  1
  Na  Na9402  1  0.13333333  0.90000000  0.30000000  1
  Na  Na9403  1  0.13333333  0.90000000  0.50000000  1
  Na  Na9404  1  0.13333333  0.90000000  0.70000000  1
  Na  Na9405  1  0.13333333  0.90000000  0.90000000  1
  Na  Na9406  1  0.33333333  0.10000000  0.10000000  1
  Na  Na9407  1  0.33333333  0.10000000  0.30000000  1
  Na  Na9408  1  0.33333333  0.10000000  0.50000000  1
  Na  Na9409  1  0.33333333  0.10000000  0.70000000  1
  Na  Na9410  1  0.33333333  0.10000000  0.90000000  1
  Na  Na9411  1  0.33333333  0.30000000  0.10000000  1
  Na  Na9412  1  0.33333333  0.30000000  0.30000000  1
  Na  Na9413  1  0.33333333  0.30000000  0.50000000  1
  Na  Na9414  1  0.33333333  0.30000000  0.70000000  1
  Na  Na9415  1  0.33333333  0.30000000  0.90000000  1
  Na  Na9416  1  0.33333333  0.50000000  0.10000000  1
  Na  Na9417  1  0.33333333  0.50000000  0.30000000  1
  Na  Na9418  1  0.33333333  0.50000000  0.50000000  1
  Na  Na9419  1  0.33333333  0.50000000  0.70000000  1
  Na  Na9420  1  0.33333333  0.50000000  0.90000000  1
  Na  Na9421  1  0.33333333  0.70000000  0.10000000  1
  Na  Na9422  1  0.33333333  0.70000000  0.30000000  1
  Na  Na9423  1  0.33333333  0.70000000  0.50000000  1
  Na  Na9424  1  0.33333333  0.70000000  0.70000000  1
  Na  Na9425  1  0.33333333  0.70000000  0.90000000  1
  Na  Na9426  1  0.33333333  0.90000000  0.10000000  1
  Na  Na9427  1  0.33333333  0.90000000  0.30000000  1
  Na  Na9428  1  0.33333333  0.90000000  0.50000000  1
  Na  Na9429  1  0.33333333  0.90000000  0.70000000  1
  Na  Na9430  1  0.33333333  0.90000000  0.90000000  1
  Na  Na9431  1  0.53333333  0.10000000  0.10000000  1
  Na  Na9432  1  0.53333333  0.10000000  0.30000000  1
  Na  Na9433  1  0.53333333  0.10000000  0.50000000  1
  Na  Na9434  1  0.53333333  0.10000000  0.70000000  1
  Na  Na9435  1  0.53333333  0.10000000  0.90000000  1
  Na  Na9436  1  0.53333333  0.30000000  0.10000000  1
  Na  Na9437  1  0.53333333  0.30000000  0.30000000  1
  Na  Na9438  1  0.53333333  0.30000000  0.50000000  1
  Na  Na9439  1  0.53333333  0.30000000  0.70000000  1
  Na  Na9440  1  0.53333333  0.30000000  0.90000000  1
  Na  Na9441  1  0.53333333  0.50000000  0.10000000  1
  Na  Na9442  1  0.53333333  0.50000000  0.30000000  1
  Na  Na9443  1  0.53333333  0.50000000  0.50000000  1
  Na  Na9444  1  0.53333333  0.50000000  0.70000000  1
  Na  Na9445  1  0.53333333  0.50000000  0.90000000  1
  Na  Na9446  1  0.53333333  0.70000000  0.10000000  1
  Na  Na9447  1  0.53333333  0.70000000  0.30000000  1
  Na  Na9448  1  0.53333333  0.70000000  0.50000000  1
  Na  Na9449  1  0.53333333  0.70000000  0.70000000  1
  Na  Na9450  1  0.53333333  0.70000000  0.90000000  1
  Na  Na9451  1  0.53333333  0.90000000  0.10000000  1
  Na  Na9452  1  0.53333333  0.90000000  0.30000000  1
  Na  Na9453  1  0.53333333  0.90000000  0.50000000  1
  Na  Na9454  1  0.53333333  0.90000000  0.70000000  1
  Na  Na9455  1  0.53333333  0.90000000  0.90000000  1
  Na  Na9456  1  0.73333333  0.10000000  0.10000000  1
  Na  Na9457  1  0.73333333  0.10000000  0.30000000  1
  Na  Na9458  1  0.73333333  0.10000000  0.50000000  1
  Na  Na9459  1  0.73333333  0.10000000  0.70000000  1
  Na  Na9460  1  0.73333333  0.10000000  0.90000000  1
  Na  Na9461  1  0.73333333  0.30000000  0.10000000  1
  Na  Na9462  1  0.73333333  0.30000000  0.30000000  1
  Na  Na9463  1  0.73333333  0.30000000  0.50000000  1
  Na  Na9464  1  0.73333333  0.30000000  0.70000000  1
  Na  Na9465  1  0.73333333  0.30000000  0.90000000  1
  Na  Na9466  1  0.73333333  0.50000000  0.10000000  1
  Na  Na9467  1  0.73333333  0.50000000  0.30000000  1
  Na  Na9468  1  0.73333333  0.50000000  0.50000000  1
  Na  Na9469  1  0.73333333  0.50000000  0.90000000  1
  Na  Na9470  1  0.73333333  0.70000000  0.10000000  1
  Na  Na9471  1  0.73333333  0.70000000  0.30000000  1
  Na  Na9472  1  0.73333333  0.70000000  0.50000000  1
  Na  Na9473  1  0.73333333  0.70000000  0.70000000  1
  Na  Na9474  1  0.73333333  0.70000000  0.90000000  1
  Na  Na9475  1  0.73333333  0.90000000  0.10000000  1
  Na  Na9476  1  0.73333333  0.90000000  0.30000000  1
  Na  Na9477  1  0.73333333  0.90000000  0.50000000  1
  Na  Na9478  1  0.73333333  0.90000000  0.70000000  1
  Na  Na9479  1  0.73333333  0.90000000  0.90000000  1
  Na  Na9480  1  0.93333333  0.10000000  0.10000000  1
  Na  Na9481  1  0.93333333  0.10000000  0.30000000  1
  Na  Na9482  1  0.93333333  0.10000000  0.50000000  1
  Na  Na9483  1  0.93333333  0.10000000  0.70000000  1
  Na  Na9484  1  0.93333333  0.10000000  0.90000000  1
  Na  Na9485  1  0.93333333  0.30000000  0.10000000  1
  Na  Na9486  1  0.93333333  0.30000000  0.30000000  1
  Na  Na9487  1  0.93333333  0.30000000  0.50000000  1
  Na  Na9488  1  0.93333333  0.30000000  0.70000000  1
  Na  Na9489  1  0.93333333  0.30000000  0.90000000  1
  Na  Na9490  1  0.93333333  0.50000000  0.10000000  1
  Na  Na9491  1  0.93333333  0.50000000  0.30000000  1
  Na  Na9492  1  0.93333333  0.50000000  0.50000000  1
  Na  Na9493  1  0.93333333  0.50000000  0.70000000  1
  Na  Na9494  1  0.93333333  0.50000000  0.90000000  1
  Na  Na9495  1  0.93333333  0.70000000  0.10000000  1
  Na  Na9496  1  0.93333333  0.70000000  0.30000000  1
  Na  Na9497  1  0.93333333  0.70000000  0.50000000  1
  Na  Na9498  1  0.93333333  0.70000000  0.70000000  1
  Na  Na9499  1  0.93333333  0.70000000  0.90000000  1
  Na  Na9500  1  0.93333333  0.90000000  0.10000000  1
  Na  Na9501  1  0.93333333  0.90000000  0.30000000  1
  Na  Na9502  1  0.93333333  0.90000000  0.50000000  1
  Na  Na9503  1  0.93333333  0.90000000  0.70000000  1
  Na  Na9504  1  0.93333333  0.90000000  0.90000000  1
  Na  Na9505  1  0.13333333  0.10000000  0.16666667  1
  Na  Na9506  1  0.13333333  0.10000000  0.36666667  1
  Na  Na9507  1  0.13333333  0.10000000  0.56666667  1
  Na  Na9508  1  0.13333333  0.10000000  0.76666667  1
  Na  Na9509  1  0.13333333  0.10000000  0.96666667  1
  Na  Na9510  1  0.13333333  0.30000000  0.16666667  1
  Na  Na9511  1  0.13333333  0.30000000  0.36666667  1
  Na  Na9512  1  0.13333333  0.30000000  0.56666667  1
  Na  Na9513  1  0.13333333  0.30000000  0.76666667  1
  Na  Na9514  1  0.13333333  0.30000000  0.96666667  1
  Na  Na9515  1  0.13333333  0.50000000  0.16666667  1
  Na  Na9516  1  0.13333333  0.50000000  0.36666667  1
  Na  Na9517  1  0.13333333  0.50000000  0.56666667  1
  Na  Na9518  1  0.13333333  0.50000000  0.76666667  1
  Na  Na9519  1  0.13333333  0.50000000  0.96666667  1
  Na  Na9520  1  0.13333333  0.70000000  0.16666667  1
  Na  Na9521  1  0.13333333  0.70000000  0.36666667  1
  Na  Na9522  1  0.13333333  0.70000000  0.56666667  1
  Na  Na9523  1  0.13333333  0.70000000  0.76666667  1
  Na  Na9524  1  0.13333333  0.70000000  0.96666667  1
  Na  Na9525  1  0.13333333  0.90000000  0.16666667  1
  Na  Na9526  1  0.13333333  0.90000000  0.36666667  1
  Na  Na9527  1  0.13333333  0.90000000  0.56666667  1
  Na  Na9528  1  0.13333333  0.90000000  0.76666667  1
  Na  Na9529  1  0.13333333  0.90000000  0.96666667  1
  Na  Na9530  1  0.33333333  0.10000000  0.16666667  1
  Na  Na9531  1  0.33333333  0.10000000  0.36666667  1
  Na  Na9532  1  0.33333333  0.10000000  0.56666667  1
  Na  Na9533  1  0.33333333  0.10000000  0.76666667  1
  Na  Na9534  1  0.33333333  0.10000000  0.96666667  1
  Na  Na9535  1  0.33333333  0.30000000  0.16666667  1
  Na  Na9536  1  0.33333333  0.30000000  0.56666667  1
  Na  Na9537  1  0.33333333  0.30000000  0.76666667  1
  Na  Na9538  1  0.33333333  0.30000000  0.96666667  1
  Na  Na9539  1  0.33333333  0.50000000  0.16666667  1
  Na  Na9540  1  0.33333333  0.50000000  0.36666667  1
  Na  Na9541  1  0.33333333  0.50000000  0.56666667  1
  Na  Na9542  1  0.33333333  0.50000000  0.76666667  1
  Na  Na9543  1  0.33333333  0.50000000  0.96666667  1
  Na  Na9544  1  0.33333333  0.70000000  0.16666667  1
  Na  Na9545  1  0.33333333  0.70000000  0.36666667  1
  Na  Na9546  1  0.33333333  0.70000000  0.56666667  1
  Na  Na9547  1  0.33333333  0.70000000  0.76666667  1
  Na  Na9548  1  0.33333333  0.70000000  0.96666667  1
  Na  Na9549  1  0.33333333  0.90000000  0.16666667  1
  Na  Na9550  1  0.33333333  0.90000000  0.36666667  1
  Na  Na9551  1  0.33333333  0.90000000  0.56666667  1
  Na  Na9552  1  0.33333333  0.90000000  0.76666667  1
  Na  Na9553  1  0.33333333  0.90000000  0.96666667  1
  Na  Na9554  1  0.53333333  0.10000000  0.16666667  1
  Na  Na9555  1  0.53333333  0.10000000  0.36666667  1
  Na  Na9556  1  0.53333333  0.10000000  0.76666667  1
  Na  Na9557  1  0.53333333  0.10000000  0.96666667  1
  Na  Na9558  1  0.53333333  0.30000000  0.16666667  1
  Na  Na9559  1  0.53333333  0.30000000  0.36666667  1
  Na  Na9560  1  0.53333333  0.30000000  0.56666667  1
  Na  Na9561  1  0.53333333  0.30000000  0.76666667  1
  Na  Na9562  1  0.53333333  0.30000000  0.96666667  1
  Na  Na9563  1  0.53333333  0.50000000  0.16666667  1
  Na  Na9564  1  0.53333333  0.50000000  0.36666667  1
  Na  Na9565  1  0.53333333  0.50000000  0.56666667  1
  Na  Na9566  1  0.53333333  0.50000000  0.76666667  1
  Na  Na9567  1  0.53333333  0.50000000  0.96666667  1
  Na  Na9568  1  0.53333333  0.70000000  0.16666667  1
  Na  Na9569  1  0.53333333  0.70000000  0.36666667  1
  Na  Na9570  1  0.53333333  0.70000000  0.56666667  1
  Na  Na9571  1  0.53333333  0.70000000  0.76666667  1
  Na  Na9572  1  0.53333333  0.70000000  0.96666667  1
  Na  Na9573  1  0.53333333  0.90000000  0.16666667  1
  Na  Na9574  1  0.53333333  0.90000000  0.36666667  1
  Na  Na9575  1  0.53333333  0.90000000  0.56666667  1
  Na  Na9576  1  0.53333333  0.90000000  0.76666667  1
  Na  Na9577  1  0.53333333  0.90000000  0.96666667  1
  Na  Na9578  1  0.73333333  0.10000000  0.16666667  1
  Na  Na9579  1  0.73333333  0.10000000  0.36666667  1
  Na  Na9580  1  0.73333333  0.10000000  0.56666667  1
  Na  Na9581  1  0.73333333  0.10000000  0.76666667  1
  Na  Na9582  1  0.73333333  0.10000000  0.96666667  1
  Na  Na9583  1  0.73333333  0.30000000  0.16666667  1
  Na  Na9584  1  0.73333333  0.30000000  0.36666667  1
  Na  Na9585  1  0.73333333  0.30000000  0.56666667  1
  Na  Na9586  1  0.73333333  0.30000000  0.76666667  1
  Na  Na9587  1  0.73333333  0.30000000  0.96666667  1
  Na  Na9588  1  0.73333333  0.50000000  0.16666667  1
  Na  Na9589  1  0.73333333  0.50000000  0.36666667  1
  Na  Na9590  1  0.73333333  0.50000000  0.56666667  1
  Na  Na9591  1  0.73333333  0.50000000  0.76666667  1
  Na  Na9592  1  0.73333333  0.50000000  0.96666667  1
  Na  Na9593  1  0.73333333  0.70000000  0.16666667  1
  Na  Na9594  1  0.73333333  0.70000000  0.36666667  1
  Na  Na9595  1  0.73333333  0.70000000  0.56666667  1
  Na  Na9596  1  0.73333333  0.70000000  0.76666667  1
  Na  Na9597  1  0.73333333  0.70000000  0.96666667  1
  Na  Na9598  1  0.73333333  0.90000000  0.16666667  1
  Na  Na9599  1  0.73333333  0.90000000  0.36666667  1
  Na  Na9600  1  0.73333333  0.90000000  0.56666667  1
  Na  Na9601  1  0.73333333  0.90000000  0.76666667  1
  Na  Na9602  1  0.73333333  0.90000000  0.96666667  1
  Na  Na9603  1  0.93333333  0.10000000  0.16666667  1
  Na  Na9604  1  0.93333333  0.10000000  0.36666667  1
  Na  Na9605  1  0.93333333  0.10000000  0.56666667  1
  Na  Na9606  1  0.93333333  0.10000000  0.76666667  1
  Na  Na9607  1  0.93333333  0.10000000  0.96666667  1
  Na  Na9608  1  0.93333333  0.30000000  0.16666667  1
  Na  Na9609  1  0.93333333  0.30000000  0.36666667  1
  Na  Na9610  1  0.93333333  0.30000000  0.56666667  1
  Na  Na9611  1  0.93333333  0.30000000  0.76666667  1
  Na  Na9612  1  0.93333333  0.30000000  0.96666667  1
  Na  Na9613  1  0.93333333  0.50000000  0.16666667  1
  Na  Na9614  1  0.93333333  0.50000000  0.36666667  1
  Na  Na9615  1  0.93333333  0.50000000  0.56666667  1
  Na  Na9616  1  0.93333333  0.50000000  0.76666667  1
  Na  Na9617  1  0.93333333  0.50000000  0.96666667  1
  Na  Na9618  1  0.93333333  0.70000000  0.16666667  1
  Na  Na9619  1  0.93333333  0.70000000  0.36666667  1
  Na  Na9620  1  0.93333333  0.70000000  0.56666667  1
  Na  Na9621  1  0.93333333  0.70000000  0.76666667  1
  Na  Na9622  1  0.93333333  0.70000000  0.96666667  1
  Na  Na9623  1  0.93333333  0.90000000  0.16666667  1
  Na  Na9624  1  0.93333333  0.90000000  0.36666667  1
  Na  Na9625  1  0.93333333  0.90000000  0.56666667  1
  Na  Na9626  1  0.93333333  0.90000000  0.76666667  1
  Na  Na9627  1  0.93333333  0.90000000  0.96666667  1
  Na  Na9628  1  0.13333333  0.16666667  0.03333333  1
  Na  Na9629  1  0.13333333  0.16666667  0.23333333  1
  Na  Na9630  1  0.13333333  0.16666667  0.43333333  1
  Na  Na9631  1  0.13333333  0.16666667  0.63333333  1
  Na  Na9632  1  0.13333333  0.16666667  0.83333333  1
  Na  Na9633  1  0.13333333  0.36666667  0.03333333  1
  Na  Na9634  1  0.13333333  0.36666667  0.23333333  1
  Na  Na9635  1  0.13333333  0.36666667  0.43333333  1
  Na  Na9636  1  0.13333333  0.36666667  0.63333333  1
  Na  Na9637  1  0.13333333  0.36666667  0.83333333  1
  Na  Na9638  1  0.13333333  0.56666667  0.03333333  1
  Na  Na9639  1  0.13333333  0.56666667  0.23333333  1
  Na  Na9640  1  0.13333333  0.56666667  0.43333333  1
  Na  Na9641  1  0.13333333  0.56666667  0.63333333  1
  Na  Na9642  1  0.13333333  0.56666667  0.83333333  1
  Na  Na9643  1  0.13333333  0.76666667  0.03333333  1
  Na  Na9644  1  0.13333333  0.76666667  0.23333333  1
  Na  Na9645  1  0.13333333  0.76666667  0.43333333  1
  Na  Na9646  1  0.13333333  0.76666667  0.63333333  1
  Na  Na9647  1  0.13333333  0.76666667  0.83333333  1
  Na  Na9648  1  0.13333333  0.96666667  0.03333333  1
  Na  Na9649  1  0.13333333  0.96666667  0.23333333  1
  Na  Na9650  1  0.13333333  0.96666667  0.43333333  1
  Na  Na9651  1  0.13333333  0.96666667  0.63333333  1
  Na  Na9652  1  0.13333333  0.96666667  0.83333333  1
  Na  Na9653  1  0.33333333  0.16666667  0.03333333  1
  Na  Na9654  1  0.33333333  0.16666667  0.23333333  1
  Na  Na9655  1  0.33333333  0.16666667  0.43333333  1
  Na  Na9656  1  0.33333333  0.16666667  0.63333333  1
  Na  Na9657  1  0.33333333  0.16666667  0.83333333  1
  Na  Na9658  1  0.33333333  0.36666667  0.03333333  1
  Na  Na9659  1  0.33333333  0.36666667  0.23333333  1
  Na  Na9660  1  0.33333333  0.36666667  0.43333333  1
  Na  Na9661  1  0.33333333  0.36666667  0.63333333  1
  Na  Na9662  1  0.33333333  0.36666667  0.83333333  1
  Na  Na9663  1  0.33333333  0.56666667  0.03333333  1
  Na  Na9664  1  0.33333333  0.56666667  0.23333333  1
  Na  Na9665  1  0.33333333  0.56666667  0.43333333  1
  Na  Na9666  1  0.33333333  0.56666667  0.63333333  1
  Na  Na9667  1  0.33333333  0.56666667  0.83333333  1
  Na  Na9668  1  0.33333333  0.76666667  0.03333333  1
  Na  Na9669  1  0.33333333  0.76666667  0.23333333  1
  Na  Na9670  1  0.33333333  0.76666667  0.43333333  1
  Na  Na9671  1  0.33333333  0.76666667  0.63333333  1
  Na  Na9672  1  0.33333333  0.76666667  0.83333333  1
  Na  Na9673  1  0.33333333  0.96666667  0.03333333  1
  Na  Na9674  1  0.33333333  0.96666667  0.23333333  1
  Na  Na9675  1  0.33333333  0.96666667  0.43333333  1
  Na  Na9676  1  0.33333333  0.96666667  0.63333333  1
  Na  Na9677  1  0.33333333  0.96666667  0.83333333  1
  Na  Na9678  1  0.53333333  0.16666667  0.03333333  1
  Na  Na9679  1  0.53333333  0.16666667  0.23333333  1
  Na  Na9680  1  0.53333333  0.16666667  0.43333333  1
  Na  Na9681  1  0.53333333  0.16666667  0.63333333  1
  Na  Na9682  1  0.53333333  0.16666667  0.83333333  1
  Na  Na9683  1  0.53333333  0.36666667  0.03333333  1
  Na  Na9684  1  0.53333333  0.36666667  0.23333333  1
  Na  Na9685  1  0.53333333  0.36666667  0.43333333  1
  Na  Na9686  1  0.53333333  0.36666667  0.63333333  1
  Na  Na9687  1  0.53333333  0.36666667  0.83333333  1
  Na  Na9688  1  0.53333333  0.56666667  0.03333333  1
  Na  Na9689  1  0.53333333  0.56666667  0.23333333  1
  Na  Na9690  1  0.53333333  0.56666667  0.43333333  1
  Na  Na9691  1  0.53333333  0.56666667  0.63333333  1
  Na  Na9692  1  0.53333333  0.56666667  0.83333333  1
  Na  Na9693  1  0.53333333  0.76666667  0.03333333  1
  Na  Na9694  1  0.53333333  0.76666667  0.23333333  1
  Na  Na9695  1  0.53333333  0.76666667  0.43333333  1
  Na  Na9696  1  0.53333333  0.76666667  0.63333333  1
  Na  Na9697  1  0.53333333  0.76666667  0.83333333  1
  Na  Na9698  1  0.53333333  0.96666667  0.03333333  1
  Na  Na9699  1  0.53333333  0.96666667  0.23333333  1
  Na  Na9700  1  0.53333333  0.96666667  0.43333333  1
  Na  Na9701  1  0.53333333  0.96666667  0.63333333  1
  Na  Na9702  1  0.53333333  0.96666667  0.83333333  1
  Na  Na9703  1  0.73333333  0.16666667  0.03333333  1
  Na  Na9704  1  0.73333333  0.16666667  0.23333333  1
  Na  Na9705  1  0.73333333  0.16666667  0.43333333  1
  Na  Na9706  1  0.73333333  0.16666667  0.63333333  1
  Na  Na9707  1  0.73333333  0.16666667  0.83333333  1
  Na  Na9708  1  0.73333333  0.36666667  0.03333333  1
  Na  Na9709  1  0.73333333  0.36666667  0.23333333  1
  Na  Na9710  1  0.73333333  0.36666667  0.43333333  1
  Na  Na9711  1  0.73333333  0.36666667  0.63333333  1
  Na  Na9712  1  0.73333333  0.36666667  0.83333333  1
  Na  Na9713  1  0.73333333  0.56666667  0.03333333  1
  Na  Na9714  1  0.73333333  0.56666667  0.23333333  1
  Na  Na9715  1  0.73333333  0.56666667  0.43333333  1
  Na  Na9716  1  0.73333333  0.56666667  0.63333333  1
  Na  Na9717  1  0.73333333  0.56666667  0.83333333  1
  Na  Na9718  1  0.73333333  0.76666667  0.03333333  1
  Na  Na9719  1  0.73333333  0.76666667  0.23333333  1
  Na  Na9720  1  0.73333333  0.76666667  0.43333333  1
  Na  Na9721  1  0.73333333  0.76666667  0.63333333  1
  Na  Na9722  1  0.73333333  0.76666667  0.83333333  1
  Na  Na9723  1  0.73333333  0.96666667  0.03333333  1
  Na  Na9724  1  0.73333333  0.96666667  0.23333333  1
  Na  Na9725  1  0.73333333  0.96666667  0.43333333  1
  Na  Na9726  1  0.73333333  0.96666667  0.63333333  1
  Na  Na9727  1  0.73333333  0.96666667  0.83333333  1
  Na  Na9728  1  0.93333333  0.16666667  0.03333333  1
  Na  Na9729  1  0.93333333  0.16666667  0.23333333  1
  Na  Na9730  1  0.93333333  0.16666667  0.43333333  1
  Na  Na9731  1  0.93333333  0.16666667  0.63333333  1
  Na  Na9732  1  0.93333333  0.16666667  0.83333333  1
  Na  Na9733  1  0.93333333  0.36666667  0.03333333  1
  Na  Na9734  1  0.93333333  0.36666667  0.23333333  1
  Na  Na9735  1  0.93333333  0.36666667  0.43333333  1
  Na  Na9736  1  0.93333333  0.36666667  0.63333333  1
  Na  Na9737  1  0.93333333  0.36666667  0.83333333  1
  Na  Na9738  1  0.93333333  0.56666667  0.03333333  1
  Na  Na9739  1  0.93333333  0.56666667  0.23333333  1
  Na  Na9740  1  0.93333333  0.56666667  0.43333333  1
  Na  Na9741  1  0.93333333  0.56666667  0.63333333  1
  Na  Na9742  1  0.93333333  0.56666667  0.83333333  1
  Na  Na9743  1  0.93333333  0.76666667  0.03333333  1
  Na  Na9744  1  0.93333333  0.76666667  0.23333333  1
  Na  Na9745  1  0.93333333  0.76666667  0.43333333  1
  Na  Na9746  1  0.93333333  0.76666667  0.63333333  1
  Na  Na9747  1  0.93333333  0.76666667  0.83333333  1
  Na  Na9748  1  0.93333333  0.96666667  0.03333333  1
  Na  Na9749  1  0.93333333  0.96666667  0.23333333  1
  Na  Na9750  1  0.93333333  0.96666667  0.43333333  1
  Na  Na9751  1  0.93333333  0.96666667  0.63333333  1
  Na  Na9752  1  0.93333333  0.96666667  0.83333333  1
  Na  Na9753  1  0.13333333  0.16666667  0.10000000  1
  Na  Na9754  1  0.13333333  0.16666667  0.30000000  1
  Na  Na9755  1  0.13333333  0.16666667  0.50000000  1
  Na  Na9756  1  0.13333333  0.16666667  0.70000000  1
  Na  Na9757  1  0.13333333  0.16666667  0.90000000  1
  Na  Na9758  1  0.13333333  0.36666667  0.10000000  1
  Na  Na9759  1  0.13333333  0.36666667  0.30000000  1
  Na  Na9760  1  0.13333333  0.36666667  0.50000000  1
  Na  Na9761  1  0.13333333  0.36666667  0.70000000  1
  Na  Na9762  1  0.13333333  0.36666667  0.90000000  1
  Na  Na9763  1  0.13333333  0.56666667  0.10000000  1
  Na  Na9764  1  0.13333333  0.56666667  0.30000000  1
  Na  Na9765  1  0.13333333  0.56666667  0.50000000  1
  Na  Na9766  1  0.13333333  0.56666667  0.70000000  1
  Na  Na9767  1  0.13333333  0.56666667  0.90000000  1
  Na  Na9768  1  0.13333333  0.76666667  0.10000000  1
  Na  Na9769  1  0.13333333  0.76666667  0.30000000  1
  Na  Na9770  1  0.13333333  0.76666667  0.50000000  1
  Na  Na9771  1  0.13333333  0.76666667  0.70000000  1
  Na  Na9772  1  0.13333333  0.76666667  0.90000000  1
  Na  Na9773  1  0.13333333  0.96666667  0.10000000  1
  Na  Na9774  1  0.13333333  0.96666667  0.30000000  1
  Na  Na9775  1  0.13333333  0.96666667  0.50000000  1
  Na  Na9776  1  0.13333333  0.96666667  0.70000000  1
  Na  Na9777  1  0.13333333  0.96666667  0.90000000  1
  Na  Na9778  1  0.33333333  0.16666667  0.10000000  1
  Na  Na9779  1  0.33333333  0.16666667  0.30000000  1
  Na  Na9780  1  0.33333333  0.16666667  0.50000000  1
  Na  Na9781  1  0.33333333  0.16666667  0.70000000  1
  Na  Na9782  1  0.33333333  0.36666667  0.10000000  1
  Na  Na9783  1  0.33333333  0.36666667  0.30000000  1
  Na  Na9784  1  0.33333333  0.36666667  0.50000000  1
  Na  Na9785  1  0.33333333  0.36666667  0.70000000  1
  Na  Na9786  1  0.33333333  0.36666667  0.90000000  1
  Na  Na9787  1  0.33333333  0.56666667  0.10000000  1
  Na  Na9788  1  0.33333333  0.56666667  0.30000000  1
  Na  Na9789  1  0.33333333  0.56666667  0.50000000  1
  Na  Na9790  1  0.33333333  0.56666667  0.70000000  1
  Na  Na9791  1  0.33333333  0.56666667  0.90000000  1
  Na  Na9792  1  0.33333333  0.76666667  0.10000000  1
  Na  Na9793  1  0.33333333  0.76666667  0.30000000  1
  Na  Na9794  1  0.33333333  0.76666667  0.50000000  1
  Na  Na9795  1  0.33333333  0.76666667  0.70000000  1
  Na  Na9796  1  0.33333333  0.76666667  0.90000000  1
  Na  Na9797  1  0.33333333  0.96666667  0.10000000  1
  Na  Na9798  1  0.33333333  0.96666667  0.30000000  1
  Na  Na9799  1  0.33333333  0.96666667  0.50000000  1
  Na  Na9800  1  0.33333333  0.96666667  0.70000000  1
  Na  Na9801  1  0.33333333  0.96666667  0.90000000  1
  Na  Na9802  1  0.53333333  0.16666667  0.10000000  1
  Na  Na9803  1  0.53333333  0.16666667  0.30000000  1
  Na  Na9804  1  0.53333333  0.16666667  0.50000000  1
  Na  Na9805  1  0.53333333  0.16666667  0.70000000  1
  Na  Na9806  1  0.53333333  0.16666667  0.90000000  1
  Na  Na9807  1  0.53333333  0.36666667  0.10000000  1
  Na  Na9808  1  0.53333333  0.36666667  0.30000000  1
  Na  Na9809  1  0.53333333  0.36666667  0.50000000  1
  Na  Na9810  1  0.53333333  0.36666667  0.70000000  1
  Na  Na9811  1  0.53333333  0.36666667  0.90000000  1
  Na  Na9812  1  0.53333333  0.56666667  0.10000000  1
  Na  Na9813  1  0.53333333  0.56666667  0.30000000  1
  Na  Na9814  1  0.53333333  0.56666667  0.50000000  1
  Na  Na9815  1  0.53333333  0.56666667  0.70000000  1
  Na  Na9816  1  0.53333333  0.56666667  0.90000000  1
  Na  Na9817  1  0.53333333  0.76666667  0.10000000  1
  Na  Na9818  1  0.53333333  0.76666667  0.30000000  1
  Na  Na9819  1  0.53333333  0.76666667  0.50000000  1
  Na  Na9820  1  0.53333333  0.76666667  0.70000000  1
  Na  Na9821  1  0.53333333  0.76666667  0.90000000  1
  Na  Na9822  1  0.53333333  0.96666667  0.10000000  1
  Na  Na9823  1  0.53333333  0.96666667  0.30000000  1
  Na  Na9824  1  0.53333333  0.96666667  0.50000000  1
  Na  Na9825  1  0.53333333  0.96666667  0.70000000  1
  Na  Na9826  1  0.53333333  0.96666667  0.90000000  1
  Na  Na9827  1  0.73333333  0.16666667  0.10000000  1
  Na  Na9828  1  0.73333333  0.16666667  0.30000000  1
  Na  Na9829  1  0.73333333  0.16666667  0.50000000  1
  Na  Na9830  1  0.73333333  0.16666667  0.70000000  1
  Na  Na9831  1  0.73333333  0.16666667  0.90000000  1
  Na  Na9832  1  0.73333333  0.36666667  0.10000000  1
  Na  Na9833  1  0.73333333  0.36666667  0.30000000  1
  Na  Na9834  1  0.73333333  0.36666667  0.50000000  1
  Na  Na9835  1  0.73333333  0.36666667  0.70000000  1
  Na  Na9836  1  0.73333333  0.36666667  0.90000000  1
  Na  Na9837  1  0.73333333  0.56666667  0.10000000  1
  Na  Na9838  1  0.73333333  0.56666667  0.30000000  1
  Na  Na9839  1  0.73333333  0.56666667  0.50000000  1
  Na  Na9840  1  0.73333333  0.56666667  0.70000000  1
  Na  Na9841  1  0.73333333  0.56666667  0.90000000  1
  Na  Na9842  1  0.73333333  0.76666667  0.10000000  1
  Na  Na9843  1  0.73333333  0.76666667  0.30000000  1
  Na  Na9844  1  0.73333333  0.76666667  0.50000000  1
  Na  Na9845  1  0.73333333  0.76666667  0.70000000  1
  Na  Na9846  1  0.73333333  0.76666667  0.90000000  1
  Na  Na9847  1  0.73333333  0.96666667  0.10000000  1
  Na  Na9848  1  0.73333333  0.96666667  0.30000000  1
  Na  Na9849  1  0.73333333  0.96666667  0.50000000  1
  Na  Na9850  1  0.73333333  0.96666667  0.70000000  1
  Na  Na9851  1  0.73333333  0.96666667  0.90000000  1
  Na  Na9852  1  0.93333333  0.16666667  0.10000000  1
  Na  Na9853  1  0.93333333  0.16666667  0.30000000  1
  Na  Na9854  1  0.93333333  0.16666667  0.50000000  1
  Na  Na9855  1  0.93333333  0.16666667  0.70000000  1
  Na  Na9856  1  0.93333333  0.16666667  0.90000000  1
  Na  Na9857  1  0.93333333  0.36666667  0.10000000  1
  Na  Na9858  1  0.93333333  0.36666667  0.30000000  1
  Na  Na9859  1  0.93333333  0.36666667  0.50000000  1
  Na  Na9860  1  0.93333333  0.36666667  0.70000000  1
  Na  Na9861  1  0.93333333  0.36666667  0.90000000  1
  Na  Na9862  1  0.93333333  0.56666667  0.10000000  1
  Na  Na9863  1  0.93333333  0.56666667  0.30000000  1
  Na  Na9864  1  0.93333333  0.56666667  0.50000000  1
  Na  Na9865  1  0.93333333  0.56666667  0.70000000  1
  Na  Na9866  1  0.93333333  0.56666667  0.90000000  1
  Na  Na9867  1  0.93333333  0.76666667  0.10000000  1
  Na  Na9868  1  0.93333333  0.76666667  0.30000000  1
  Na  Na9869  1  0.93333333  0.76666667  0.50000000  1
  Na  Na9870  1  0.93333333  0.76666667  0.70000000  1
  Na  Na9871  1  0.93333333  0.76666667  0.90000000  1
  Na  Na9872  1  0.93333333  0.96666667  0.10000000  1
  Na  Na9873  1  0.93333333  0.96666667  0.30000000  1
  Na  Na9874  1  0.93333333  0.96666667  0.50000000  1
  Na  Na9875  1  0.93333333  0.96666667  0.70000000  1
  Na  Na9876  1  0.93333333  0.96666667  0.90000000  1
  Na  Na9877  1  0.13333333  0.16666667  0.16666667  1
  Na  Na9878  1  0.13333333  0.16666667  0.36666667  1
  Na  Na9879  1  0.13333333  0.16666667  0.56666667  1
  Na  Na9880  1  0.13333333  0.16666667  0.76666667  1
  Na  Na9881  1  0.13333333  0.16666667  0.96666667  1
  Na  Na9882  1  0.13333333  0.36666667  0.16666667  1
  Na  Na9883  1  0.13333333  0.36666667  0.36666667  1
  Na  Na9884  1  0.13333333  0.36666667  0.56666667  1
  Na  Na9885  1  0.13333333  0.36666667  0.76666667  1
  Na  Na9886  1  0.13333333  0.36666667  0.96666667  1
  Na  Na9887  1  0.13333333  0.56666667  0.16666667  1
  Na  Na9888  1  0.13333333  0.56666667  0.36666667  1
  Na  Na9889  1  0.13333333  0.56666667  0.56666667  1
  Na  Na9890  1  0.13333333  0.56666667  0.76666667  1
  Na  Na9891  1  0.13333333  0.56666667  0.96666667  1
  Na  Na9892  1  0.13333333  0.76666667  0.16666667  1
  Na  Na9893  1  0.13333333  0.76666667  0.36666667  1
  Na  Na9894  1  0.13333333  0.76666667  0.56666667  1
  Na  Na9895  1  0.13333333  0.76666667  0.96666667  1
  Na  Na9896  1  0.13333333  0.96666667  0.16666667  1
  Na  Na9897  1  0.13333333  0.96666667  0.36666667  1
  Na  Na9898  1  0.13333333  0.96666667  0.56666667  1
  Na  Na9899  1  0.13333333  0.96666667  0.76666667  1
  Na  Na9900  1  0.13333333  0.96666667  0.96666667  1
  Na  Na9901  1  0.33333333  0.16666667  0.16666667  1
  Na  Na9902  1  0.33333333  0.16666667  0.36666667  1
  Na  Na9903  1  0.33333333  0.16666667  0.56666667  1
  Na  Na9904  1  0.33333333  0.16666667  0.76666667  1
  Na  Na9905  1  0.33333333  0.16666667  0.96666667  1
  Na  Na9906  1  0.33333333  0.36666667  0.16666667  1
  Na  Na9907  1  0.33333333  0.36666667  0.36666667  1
  Na  Na9908  1  0.33333333  0.36666667  0.56666667  1
  Na  Na9909  1  0.33333333  0.36666667  0.76666667  1
  Na  Na9910  1  0.33333333  0.36666667  0.96666667  1
  Na  Na9911  1  0.33333333  0.56666667  0.36666667  1
  Na  Na9912  1  0.33333333  0.56666667  0.56666667  1
  Na  Na9913  1  0.33333333  0.56666667  0.76666667  1
  Na  Na9914  1  0.33333333  0.56666667  0.96666667  1
  Na  Na9915  1  0.33333333  0.76666667  0.16666667  1
  Na  Na9916  1  0.33333333  0.76666667  0.36666667  1
  Na  Na9917  1  0.33333333  0.76666667  0.56666667  1
  Na  Na9918  1  0.33333333  0.76666667  0.76666667  1
  Na  Na9919  1  0.33333333  0.76666667  0.96666667  1
  Na  Na9920  1  0.33333333  0.96666667  0.16666667  1
  Na  Na9921  1  0.33333333  0.96666667  0.36666667  1
  Na  Na9922  1  0.33333333  0.96666667  0.56666667  1
  Na  Na9923  1  0.33333333  0.96666667  0.76666667  1
  Na  Na9924  1  0.33333333  0.96666667  0.96666667  1
  Na  Na9925  1  0.53333333  0.16666667  0.16666667  1
  Na  Na9926  1  0.53333333  0.16666667  0.56666667  1
  Na  Na9927  1  0.53333333  0.16666667  0.76666667  1
  Na  Na9928  1  0.53333333  0.16666667  0.96666667  1
  Na  Na9929  1  0.53333333  0.36666667  0.16666667  1
  Na  Na9930  1  0.53333333  0.36666667  0.36666667  1
  Na  Na9931  1  0.53333333  0.36666667  0.56666667  1
  Na  Na9932  1  0.53333333  0.36666667  0.76666667  1
  Na  Na9933  1  0.53333333  0.36666667  0.96666667  1
  Na  Na9934  1  0.53333333  0.56666667  0.16666667  1
  Na  Na9935  1  0.53333333  0.56666667  0.36666667  1
  Na  Na9936  1  0.53333333  0.56666667  0.56666667  1
  Na  Na9937  1  0.53333333  0.56666667  0.76666667  1
  Na  Na9938  1  0.53333333  0.56666667  0.96666667  1
  Na  Na9939  1  0.53333333  0.76666667  0.16666667  1
  Na  Na9940  1  0.53333333  0.76666667  0.36666667  1
  Na  Na9941  1  0.53333333  0.76666667  0.56666667  1
  Na  Na9942  1  0.53333333  0.76666667  0.76666667  1
  Na  Na9943  1  0.53333333  0.76666667  0.96666667  1
  Na  Na9944  1  0.53333333  0.96666667  0.16666667  1
  Na  Na9945  1  0.53333333  0.96666667  0.36666667  1
  Na  Na9946  1  0.53333333  0.96666667  0.56666667  1
  Na  Na9947  1  0.53333333  0.96666667  0.76666667  1
  Na  Na9948  1  0.53333333  0.96666667  0.96666667  1
  Na  Na9949  1  0.73333333  0.16666667  0.16666667  1
  Na  Na9950  1  0.73333333  0.16666667  0.36666667  1
  Na  Na9951  1  0.73333333  0.16666667  0.56666667  1
  Na  Na9952  1  0.73333333  0.16666667  0.76666667  1
  Na  Na9953  1  0.73333333  0.16666667  0.96666667  1
  Na  Na9954  1  0.73333333  0.36666667  0.16666667  1
  Na  Na9955  1  0.73333333  0.36666667  0.36666667  1
  Na  Na9956  1  0.73333333  0.36666667  0.56666667  1
  Na  Na9957  1  0.73333333  0.36666667  0.76666667  1
  Na  Na9958  1  0.73333333  0.36666667  0.96666667  1
  Na  Na9959  1  0.73333333  0.56666667  0.16666667  1
  Na  Na9960  1  0.73333333  0.56666667  0.36666667  1
  Na  Na9961  1  0.73333333  0.56666667  0.56666667  1
  Na  Na9962  1  0.73333333  0.56666667  0.76666667  1
  Na  Na9963  1  0.73333333  0.56666667  0.96666667  1
  Na  Na9964  1  0.73333333  0.76666667  0.16666667  1
  Na  Na9965  1  0.73333333  0.76666667  0.36666667  1
  Na  Na9966  1  0.73333333  0.76666667  0.56666667  1
  Na  Na9967  1  0.73333333  0.76666667  0.76666667  1
  Na  Na9968  1  0.73333333  0.76666667  0.96666667  1
  Na  Na9969  1  0.73333333  0.96666667  0.16666667  1
  Na  Na9970  1  0.73333333  0.96666667  0.36666667  1
  Na  Na9971  1  0.73333333  0.96666667  0.56666667  1
  Na  Na9972  1  0.73333333  0.96666667  0.76666667  1
  Na  Na9973  1  0.73333333  0.96666667  0.96666667  1
  Na  Na9974  1  0.93333333  0.16666667  0.16666667  1
  Na  Na9975  1  0.93333333  0.16666667  0.36666667  1
  Na  Na9976  1  0.93333333  0.16666667  0.56666667  1
  Na  Na9977  1  0.93333333  0.16666667  0.76666667  1
  Na  Na9978  1  0.93333333  0.16666667  0.96666667  1
  Na  Na9979  1  0.93333333  0.36666667  0.16666667  1
  Na  Na9980  1  0.93333333  0.36666667  0.36666667  1
  Na  Na9981  1  0.93333333  0.36666667  0.56666667  1
  Na  Na9982  1  0.93333333  0.36666667  0.76666667  1
  Na  Na9983  1  0.93333333  0.36666667  0.96666667  1
  Na  Na9984  1  0.93333333  0.56666667  0.16666667  1
  Na  Na9985  1  0.93333333  0.56666667  0.36666667  1
  Na  Na9986  1  0.93333333  0.56666667  0.56666667  1
  Na  Na9987  1  0.93333333  0.56666667  0.76666667  1
  Na  Na9988  1  0.93333333  0.56666667  0.96666667  1
  Na  Na9989  1  0.93333333  0.76666667  0.16666667  1
  Na  Na9990  1  0.93333333  0.76666667  0.36666667  1
  Na  Na9991  1  0.93333333  0.76666667  0.56666667  1
  Na  Na9992  1  0.93333333  0.76666667  0.76666667  1
  Na  Na9993  1  0.93333333  0.76666667  0.96666667  1
  Na  Na9994  1  0.93333333  0.96666667  0.16666667  1
  Na  Na9995  1  0.93333333  0.96666667  0.36666667  1
  Na  Na9996  1  0.93333333  0.96666667  0.56666667  1
  Na  Na9997  1  0.93333333  0.96666667  0.76666667  1
  Na  Na9998  1  0.93333333  0.96666667  0.96666667  1
  O  O9999  1  0.03333333  0.03333333  0.03333333  1
  O  O10000  1  0.03333333  0.03333333  0.23333333  1
  O  O10001  1  0.03333333  0.03333333  0.43333333  1
  O  O10002  1  0.03333333  0.03333333  0.63333333  1
  O  O10003  1  0.03333333  0.03333333  0.83333333  1
  O  O10004  1  0.03333333  0.23333333  0.03333333  1
  O  O10005  1  0.03333333  0.23333333  0.23333333  1
  O  O10006  1  0.03333333  0.23333333  0.43333333  1
  O  O10007  1  0.03333333  0.23333333  0.63333333  1
  O  O10008  1  0.03333333  0.23333333  0.83333333  1
  O  O10009  1  0.03333333  0.43333333  0.03333333  1
  O  O10010  1  0.03333333  0.43333333  0.23333333  1
  O  O10011  1  0.03333333  0.43333333  0.43333333  1
  O  O10012  1  0.03333333  0.43333333  0.63333333  1
  O  O10013  1  0.03333333  0.43333333  0.83333333  1
  O  O10014  1  0.03333333  0.63333333  0.03333333  1
  O  O10015  1  0.03333333  0.63333333  0.23333333  1
  O  O10016  1  0.03333333  0.63333333  0.43333333  1
  O  O10017  1  0.03333333  0.63333333  0.63333333  1
  O  O10018  1  0.03333333  0.63333333  0.83333333  1
  O  O10019  1  0.03333333  0.83333333  0.03333333  1
  O  O10020  1  0.03333333  0.83333333  0.23333333  1
  O  O10021  1  0.03333333  0.83333333  0.43333333  1
  O  O10022  1  0.03333333  0.83333333  0.63333333  1
  O  O10023  1  0.03333333  0.83333333  0.83333333  1
  O  O10024  1  0.23333333  0.03333333  0.03333333  1
  O  O10025  1  0.23333333  0.03333333  0.23333333  1
  O  O10026  1  0.23333333  0.03333333  0.43333333  1
  O  O10027  1  0.23333333  0.03333333  0.63333333  1
  O  O10028  1  0.23333333  0.03333333  0.83333333  1
  O  O10029  1  0.23333333  0.23333333  0.03333333  1
  O  O10030  1  0.23333333  0.23333333  0.23333333  1
  O  O10031  1  0.23333333  0.23333333  0.43333333  1
  O  O10032  1  0.23333333  0.23333333  0.63333333  1
  O  O10033  1  0.23333333  0.23333333  0.83333333  1
  O  O10034  1  0.23333333  0.43333333  0.03333333  1
  O  O10035  1  0.23333333  0.43333333  0.23333333  1
  O  O10036  1  0.23333333  0.43333333  0.43333333  1
  O  O10037  1  0.23333333  0.43333333  0.63333333  1
  O  O10038  1  0.23333333  0.43333333  0.83333333  1
  O  O10039  1  0.23333333  0.63333333  0.03333333  1
  O  O10040  1  0.23333333  0.63333333  0.23333333  1
  O  O10041  1  0.23333333  0.63333333  0.43333333  1
  O  O10042  1  0.23333333  0.63333333  0.63333333  1
  O  O10043  1  0.23333333  0.63333333  0.83333333  1
  O  O10044  1  0.23333333  0.83333333  0.03333333  1
  O  O10045  1  0.23333333  0.83333333  0.23333333  1
  O  O10046  1  0.23333333  0.83333333  0.43333333  1
  O  O10047  1  0.23333333  0.83333333  0.63333333  1
  O  O10048  1  0.23333333  0.83333333  0.83333333  1
  O  O10049  1  0.43333333  0.03333333  0.03333333  1
  O  O10050  1  0.43333333  0.03333333  0.23333333  1
  O  O10051  1  0.43333333  0.03333333  0.43333333  1
  O  O10052  1  0.43333333  0.03333333  0.63333333  1
  O  O10053  1  0.43333333  0.03333333  0.83333333  1
  O  O10054  1  0.43333333  0.23333333  0.03333333  1
  O  O10055  1  0.43333333  0.23333333  0.23333333  1
  O  O10056  1  0.43333333  0.23333333  0.43333333  1
  O  O10057  1  0.43333333  0.23333333  0.63333333  1
  O  O10058  1  0.43333333  0.23333333  0.83333333  1
  O  O10059  1  0.43333333  0.43333333  0.03333333  1
  O  O10060  1  0.43333333  0.43333333  0.23333333  1
  O  O10061  1  0.43333333  0.43333333  0.43333333  1
  O  O10062  1  0.43333333  0.43333333  0.63333333  1
  O  O10063  1  0.43333333  0.43333333  0.83333333  1
  O  O10064  1  0.43333333  0.63333333  0.03333333  1
  O  O10065  1  0.43333333  0.63333333  0.23333333  1
  O  O10066  1  0.43333333  0.63333333  0.43333333  1
  O  O10067  1  0.43333333  0.63333333  0.63333333  1
  O  O10068  1  0.43333333  0.63333333  0.83333333  1
  O  O10069  1  0.43333333  0.83333333  0.03333333  1
  O  O10070  1  0.43333333  0.83333333  0.23333333  1
  O  O10071  1  0.43333333  0.83333333  0.43333333  1
  O  O10072  1  0.43333333  0.83333333  0.63333333  1
  O  O10073  1  0.43333333  0.83333333  0.83333333  1
  O  O10074  1  0.63333333  0.03333333  0.03333333  1
  O  O10075  1  0.63333333  0.03333333  0.23333333  1
  O  O10076  1  0.63333333  0.03333333  0.43333333  1
  O  O10077  1  0.63333333  0.03333333  0.63333333  1
  O  O10078  1  0.63333333  0.03333333  0.83333333  1
  O  O10079  1  0.63333333  0.23333333  0.03333333  1
  O  O10080  1  0.63333333  0.23333333  0.23333333  1
  O  O10081  1  0.63333333  0.23333333  0.43333333  1
  O  O10082  1  0.63333333  0.23333333  0.63333333  1
  O  O10083  1  0.63333333  0.23333333  0.83333333  1
  O  O10084  1  0.63333333  0.43333333  0.03333333  1
  O  O10085  1  0.63333333  0.43333333  0.23333333  1
  O  O10086  1  0.63333333  0.43333333  0.43333333  1
  O  O10087  1  0.63333333  0.43333333  0.63333333  1
  O  O10088  1  0.63333333  0.43333333  0.83333333  1
  O  O10089  1  0.63333333  0.63333333  0.03333333  1
  O  O10090  1  0.63333333  0.63333333  0.23333333  1
  O  O10091  1  0.63333333  0.63333333  0.43333333  1
  O  O10092  1  0.63333333  0.63333333  0.63333333  1
  O  O10093  1  0.63333333  0.63333333  0.83333333  1
  O  O10094  1  0.63333333  0.83333333  0.03333333  1
  O  O10095  1  0.63333333  0.83333333  0.23333333  1
  O  O10096  1  0.63333333  0.83333333  0.43333333  1
  O  O10097  1  0.63333333  0.83333333  0.63333333  1
  O  O10098  1  0.63333333  0.83333333  0.83333333  1
  O  O10099  1  0.83333333  0.03333333  0.03333333  1
  O  O10100  1  0.83333333  0.03333333  0.23333333  1
  O  O10101  1  0.83333333  0.03333333  0.43333333  1
  O  O10102  1  0.83333333  0.03333333  0.63333333  1
  O  O10103  1  0.83333333  0.03333333  0.83333333  1
  O  O10104  1  0.83333333  0.23333333  0.03333333  1
  O  O10105  1  0.83333333  0.23333333  0.23333333  1
  O  O10106  1  0.83333333  0.23333333  0.43333333  1
  O  O10107  1  0.83333333  0.23333333  0.63333333  1
  O  O10108  1  0.83333333  0.23333333  0.83333333  1
  O  O10109  1  0.83333333  0.43333333  0.03333333  1
  O  O10110  1  0.83333333  0.43333333  0.23333333  1
  O  O10111  1  0.83333333  0.43333333  0.43333333  1
  O  O10112  1  0.83333333  0.43333333  0.63333333  1
  O  O10113  1  0.83333333  0.43333333  0.83333333  1
  O  O10114  1  0.83333333  0.63333333  0.03333333  1
  O  O10115  1  0.83333333  0.63333333  0.23333333  1
  O  O10116  1  0.83333333  0.63333333  0.43333333  1
  O  O10117  1  0.83333333  0.63333333  0.63333333  1
  O  O10118  1  0.83333333  0.63333333  0.83333333  1
  O  O10119  1  0.83333333  0.83333333  0.03333333  1
  O  O10120  1  0.83333333  0.83333333  0.23333333  1
  O  O10121  1  0.83333333  0.83333333  0.43333333  1
  O  O10122  1  0.83333333  0.83333333  0.63333333  1
  O  O10123  1  0.83333333  0.83333333  0.83333333  1
  O  O10124  1  0.03333333  0.03333333  0.10000000  1
  O  O10125  1  0.03333333  0.03333333  0.30000000  1
  O  O10126  1  0.03333333  0.03333333  0.50000000  1
  O  O10127  1  0.03333333  0.03333333  0.70000000  1
  O  O10128  1  0.03333333  0.03333333  0.90000000  1
  O  O10129  1  0.03333333  0.23333333  0.10000000  1
  O  O10130  1  0.03333333  0.23333333  0.30000000  1
  O  O10131  1  0.03333333  0.23333333  0.50000000  1
  O  O10132  1  0.03333333  0.23333333  0.70000000  1
  O  O10133  1  0.03333333  0.23333333  0.90000000  1
  O  O10134  1  0.03333333  0.43333333  0.10000000  1
  O  O10135  1  0.03333333  0.43333333  0.30000000  1
  O  O10136  1  0.03333333  0.43333333  0.50000000  1
  O  O10137  1  0.03333333  0.43333333  0.70000000  1
  O  O10138  1  0.03333333  0.43333333  0.90000000  1
  O  O10139  1  0.03333333  0.63333333  0.10000000  1
  O  O10140  1  0.03333333  0.63333333  0.30000000  1
  O  O10141  1  0.03333333  0.63333333  0.50000000  1
  O  O10142  1  0.03333333  0.63333333  0.70000000  1
  O  O10143  1  0.03333333  0.63333333  0.90000000  1
  O  O10144  1  0.03333333  0.83333333  0.10000000  1
  O  O10145  1  0.03333333  0.83333333  0.30000000  1
  O  O10146  1  0.03333333  0.83333333  0.50000000  1
  O  O10147  1  0.03333333  0.83333333  0.70000000  1
  O  O10148  1  0.03333333  0.83333333  0.90000000  1
  O  O10149  1  0.23333333  0.03333333  0.10000000  1
  O  O10150  1  0.23333333  0.03333333  0.30000000  1
  O  O10151  1  0.23333333  0.03333333  0.50000000  1
  O  O10152  1  0.23333333  0.03333333  0.70000000  1
  O  O10153  1  0.23333333  0.03333333  0.90000000  1
  O  O10154  1  0.23333333  0.23333333  0.10000000  1
  O  O10155  1  0.23333333  0.23333333  0.30000000  1
  O  O10156  1  0.23333333  0.23333333  0.50000000  1
  O  O10157  1  0.23333333  0.23333333  0.70000000  1
  O  O10158  1  0.23333333  0.23333333  0.90000000  1
  O  O10159  1  0.23333333  0.43333333  0.10000000  1
  O  O10160  1  0.23333333  0.43333333  0.30000000  1
  O  O10161  1  0.23333333  0.43333333  0.50000000  1
  O  O10162  1  0.23333333  0.43333333  0.70000000  1
  O  O10163  1  0.23333333  0.43333333  0.90000000  1
  O  O10164  1  0.23333333  0.63333333  0.10000000  1
  O  O10165  1  0.23333333  0.63333333  0.30000000  1
  O  O10166  1  0.23333333  0.63333333  0.50000000  1
  O  O10167  1  0.23333333  0.63333333  0.70000000  1
  O  O10168  1  0.23333333  0.63333333  0.90000000  1
  O  O10169  1  0.23333333  0.83333333  0.10000000  1
  O  O10170  1  0.23333333  0.83333333  0.30000000  1
  O  O10171  1  0.23333333  0.83333333  0.50000000  1
  O  O10172  1  0.23333333  0.83333333  0.70000000  1
  O  O10173  1  0.23333333  0.83333333  0.90000000  1
  O  O10174  1  0.43333333  0.03333333  0.10000000  1
  O  O10175  1  0.43333333  0.03333333  0.30000000  1
  O  O10176  1  0.43333333  0.03333333  0.50000000  1
  O  O10177  1  0.43333333  0.03333333  0.70000000  1
  O  O10178  1  0.43333333  0.03333333  0.90000000  1
  O  O10179  1  0.43333333  0.23333333  0.10000000  1
  O  O10180  1  0.43333333  0.23333333  0.30000000  1
  O  O10181  1  0.43333333  0.23333333  0.50000000  1
  O  O10182  1  0.43333333  0.23333333  0.70000000  1
  O  O10183  1  0.43333333  0.23333333  0.90000000  1
  O  O10184  1  0.43333333  0.43333333  0.10000000  1
  O  O10185  1  0.43333333  0.43333333  0.30000000  1
  O  O10186  1  0.43333333  0.43333333  0.50000000  1
  O  O10187  1  0.43333333  0.43333333  0.70000000  1
  O  O10188  1  0.43333333  0.43333333  0.90000000  1
  O  O10189  1  0.43333333  0.63333333  0.10000000  1
  O  O10190  1  0.43333333  0.63333333  0.30000000  1
  O  O10191  1  0.43333333  0.63333333  0.50000000  1
  O  O10192  1  0.43333333  0.63333333  0.70000000  1
  O  O10193  1  0.43333333  0.63333333  0.90000000  1
  O  O10194  1  0.43333333  0.83333333  0.10000000  1
  O  O10195  1  0.43333333  0.83333333  0.30000000  1
  O  O10196  1  0.43333333  0.83333333  0.50000000  1
  O  O10197  1  0.43333333  0.83333333  0.70000000  1
  O  O10198  1  0.43333333  0.83333333  0.90000000  1
  O  O10199  1  0.63333333  0.03333333  0.10000000  1
  O  O10200  1  0.63333333  0.03333333  0.30000000  1
  O  O10201  1  0.63333333  0.03333333  0.50000000  1
  O  O10202  1  0.63333333  0.03333333  0.70000000  1
  O  O10203  1  0.63333333  0.03333333  0.90000000  1
  O  O10204  1  0.63333333  0.23333333  0.10000000  1
  O  O10205  1  0.63333333  0.23333333  0.30000000  1
  O  O10206  1  0.63333333  0.23333333  0.50000000  1
  O  O10207  1  0.63333333  0.23333333  0.70000000  1
  O  O10208  1  0.63333333  0.23333333  0.90000000  1
  O  O10209  1  0.63333333  0.43333333  0.10000000  1
  O  O10210  1  0.63333333  0.43333333  0.30000000  1
  O  O10211  1  0.63333333  0.43333333  0.50000000  1
  O  O10212  1  0.63333333  0.43333333  0.70000000  1
  O  O10213  1  0.63333333  0.43333333  0.90000000  1
  O  O10214  1  0.63333333  0.63333333  0.10000000  1
  O  O10215  1  0.63333333  0.63333333  0.30000000  1
  O  O10216  1  0.63333333  0.63333333  0.50000000  1
  O  O10217  1  0.63333333  0.63333333  0.70000000  1
  O  O10218  1  0.63333333  0.63333333  0.90000000  1
  O  O10219  1  0.63333333  0.83333333  0.10000000  1
  O  O10220  1  0.63333333  0.83333333  0.30000000  1
  O  O10221  1  0.63333333  0.83333333  0.50000000  1
  O  O10222  1  0.63333333  0.83333333  0.70000000  1
  O  O10223  1  0.63333333  0.83333333  0.90000000  1
  O  O10224  1  0.83333333  0.03333333  0.10000000  1
  O  O10225  1  0.83333333  0.03333333  0.30000000  1
  O  O10226  1  0.83333333  0.03333333  0.50000000  1
  O  O10227  1  0.83333333  0.03333333  0.70000000  1
  O  O10228  1  0.83333333  0.03333333  0.90000000  1
  O  O10229  1  0.83333333  0.23333333  0.10000000  1
  O  O10230  1  0.83333333  0.23333333  0.30000000  1
  O  O10231  1  0.83333333  0.23333333  0.50000000  1
  O  O10232  1  0.83333333  0.23333333  0.70000000  1
  O  O10233  1  0.83333333  0.23333333  0.90000000  1
  O  O10234  1  0.83333333  0.43333333  0.10000000  1
  O  O10235  1  0.83333333  0.43333333  0.30000000  1
  O  O10236  1  0.83333333  0.43333333  0.50000000  1
  O  O10237  1  0.83333333  0.43333333  0.70000000  1
  O  O10238  1  0.83333333  0.43333333  0.90000000  1
  O  O10239  1  0.83333333  0.63333333  0.10000000  1
  O  O10240  1  0.83333333  0.63333333  0.30000000  1
  O  O10241  1  0.83333333  0.63333333  0.50000000  1
  O  O10242  1  0.83333333  0.63333333  0.70000000  1
  O  O10243  1  0.83333333  0.63333333  0.90000000  1
  O  O10244  1  0.83333333  0.83333333  0.10000000  1
  O  O10245  1  0.83333333  0.83333333  0.30000000  1
  O  O10246  1  0.83333333  0.83333333  0.50000000  1
  O  O10247  1  0.83333333  0.83333333  0.70000000  1
  O  O10248  1  0.83333333  0.83333333  0.90000000  1
  O  O10249  1  0.03333333  0.03333333  0.16666667  1
  O  O10250  1  0.03333333  0.03333333  0.36666667  1
  O  O10251  1  0.03333333  0.03333333  0.56666667  1
  O  O10252  1  0.03333333  0.03333333  0.76666667  1
  O  O10253  1  0.03333333  0.03333333  0.96666667  1
  O  O10254  1  0.03333333  0.23333333  0.16666667  1
  O  O10255  1  0.03333333  0.23333333  0.36666667  1
  O  O10256  1  0.03333333  0.23333333  0.56666667  1
  O  O10257  1  0.03333333  0.23333333  0.76666667  1
  O  O10258  1  0.03333333  0.23333333  0.96666667  1
  O  O10259  1  0.03333333  0.43333333  0.16666667  1
  O  O10260  1  0.03333333  0.43333333  0.36666667  1
  O  O10261  1  0.03333333  0.43333333  0.56666667  1
  O  O10262  1  0.03333333  0.43333333  0.76666667  1
  O  O10263  1  0.03333333  0.43333333  0.96666667  1
  O  O10264  1  0.03333333  0.63333333  0.16666667  1
  O  O10265  1  0.03333333  0.63333333  0.36666667  1
  O  O10266  1  0.03333333  0.63333333  0.56666667  1
  O  O10267  1  0.03333333  0.63333333  0.76666667  1
  O  O10268  1  0.03333333  0.63333333  0.96666667  1
  O  O10269  1  0.03333333  0.83333333  0.16666667  1
  O  O10270  1  0.03333333  0.83333333  0.36666667  1
  O  O10271  1  0.03333333  0.83333333  0.56666667  1
  O  O10272  1  0.03333333  0.83333333  0.76666667  1
  O  O10273  1  0.03333333  0.83333333  0.96666667  1
  O  O10274  1  0.23333333  0.03333333  0.16666667  1
  O  O10275  1  0.23333333  0.03333333  0.36666667  1
  O  O10276  1  0.23333333  0.03333333  0.56666667  1
  O  O10277  1  0.23333333  0.03333333  0.76666667  1
  O  O10278  1  0.23333333  0.03333333  0.96666667  1
  O  O10279  1  0.23333333  0.23333333  0.16666667  1
  O  O10280  1  0.23333333  0.23333333  0.36666667  1
  O  O10281  1  0.23333333  0.23333333  0.56666667  1
  O  O10282  1  0.23333333  0.23333333  0.76666667  1
  O  O10283  1  0.23333333  0.23333333  0.96666667  1
  O  O10284  1  0.23333333  0.43333333  0.16666667  1
  O  O10285  1  0.23333333  0.43333333  0.36666667  1
  O  O10286  1  0.23333333  0.43333333  0.56666667  1
  O  O10287  1  0.23333333  0.43333333  0.76666667  1
  O  O10288  1  0.23333333  0.43333333  0.96666667  1
  O  O10289  1  0.23333333  0.63333333  0.16666667  1
  O  O10290  1  0.23333333  0.63333333  0.36666667  1
  O  O10291  1  0.23333333  0.63333333  0.56666667  1
  O  O10292  1  0.23333333  0.63333333  0.76666667  1
  O  O10293  1  0.23333333  0.63333333  0.96666667  1
  O  O10294  1  0.23333333  0.83333333  0.16666667  1
  O  O10295  1  0.23333333  0.83333333  0.36666667  1
  O  O10296  1  0.23333333  0.83333333  0.56666667  1
  O  O10297  1  0.23333333  0.83333333  0.76666667  1
  O  O10298  1  0.23333333  0.83333333  0.96666667  1
  O  O10299  1  0.43333333  0.03333333  0.16666667  1
  O  O10300  1  0.43333333  0.03333333  0.36666667  1
  O  O10301  1  0.43333333  0.03333333  0.56666667  1
  O  O10302  1  0.43333333  0.03333333  0.76666667  1
  O  O10303  1  0.43333333  0.03333333  0.96666667  1
  O  O10304  1  0.43333333  0.23333333  0.16666667  1
  O  O10305  1  0.43333333  0.23333333  0.36666667  1
  O  O10306  1  0.43333333  0.23333333  0.56666667  1
  O  O10307  1  0.43333333  0.23333333  0.76666667  1
  O  O10308  1  0.43333333  0.23333333  0.96666667  1
  O  O10309  1  0.43333333  0.43333333  0.16666667  1
  O  O10310  1  0.43333333  0.43333333  0.36666667  1
  O  O10311  1  0.43333333  0.43333333  0.56666667  1
  O  O10312  1  0.43333333  0.43333333  0.76666667  1
  O  O10313  1  0.43333333  0.43333333  0.96666667  1
  O  O10314  1  0.43333333  0.63333333  0.16666667  1
  O  O10315  1  0.43333333  0.63333333  0.36666667  1
  O  O10316  1  0.43333333  0.63333333  0.56666667  1
  O  O10317  1  0.43333333  0.63333333  0.76666667  1
  O  O10318  1  0.43333333  0.63333333  0.96666667  1
  O  O10319  1  0.43333333  0.83333333  0.16666667  1
  O  O10320  1  0.43333333  0.83333333  0.36666667  1
  O  O10321  1  0.43333333  0.83333333  0.56666667  1
  O  O10322  1  0.43333333  0.83333333  0.76666667  1
  O  O10323  1  0.43333333  0.83333333  0.96666667  1
  O  O10324  1  0.63333333  0.03333333  0.16666667  1
  O  O10325  1  0.63333333  0.03333333  0.36666667  1
  O  O10326  1  0.63333333  0.03333333  0.56666667  1
  O  O10327  1  0.63333333  0.03333333  0.76666667  1
  O  O10328  1  0.63333333  0.03333333  0.96666667  1
  O  O10329  1  0.63333333  0.23333333  0.16666667  1
  O  O10330  1  0.63333333  0.23333333  0.36666667  1
  O  O10331  1  0.63333333  0.23333333  0.56666667  1
  O  O10332  1  0.63333333  0.23333333  0.76666667  1
  O  O10333  1  0.63333333  0.23333333  0.96666667  1
  O  O10334  1  0.63333333  0.43333333  0.16666667  1
  O  O10335  1  0.63333333  0.43333333  0.36666667  1
  O  O10336  1  0.63333333  0.43333333  0.56666667  1
  O  O10337  1  0.63333333  0.43333333  0.76666667  1
  O  O10338  1  0.63333333  0.43333333  0.96666667  1
  O  O10339  1  0.63333333  0.63333333  0.16666667  1
  O  O10340  1  0.63333333  0.63333333  0.36666667  1
  O  O10341  1  0.63333333  0.63333333  0.56666667  1
  O  O10342  1  0.63333333  0.63333333  0.76666667  1
  O  O10343  1  0.63333333  0.63333333  0.96666667  1
  O  O10344  1  0.63333333  0.83333333  0.16666667  1
  O  O10345  1  0.63333333  0.83333333  0.36666667  1
  O  O10346  1  0.63333333  0.83333333  0.56666667  1
  O  O10347  1  0.63333333  0.83333333  0.76666667  1
  O  O10348  1  0.63333333  0.83333333  0.96666667  1
  O  O10349  1  0.83333333  0.03333333  0.16666667  1
  O  O10350  1  0.83333333  0.03333333  0.36666667  1
  O  O10351  1  0.83333333  0.03333333  0.56666667  1
  O  O10352  1  0.83333333  0.03333333  0.76666667  1
  O  O10353  1  0.83333333  0.03333333  0.96666667  1
  O  O10354  1  0.83333333  0.23333333  0.16666667  1
  O  O10355  1  0.83333333  0.23333333  0.36666667  1
  O  O10356  1  0.83333333  0.23333333  0.56666667  1
  O  O10357  1  0.83333333  0.23333333  0.76666667  1
  O  O10358  1  0.83333333  0.23333333  0.96666667  1
  O  O10359  1  0.83333333  0.43333333  0.16666667  1
  O  O10360  1  0.83333333  0.43333333  0.36666667  1
  O  O10361  1  0.83333333  0.43333333  0.56666667  1
  O  O10362  1  0.83333333  0.43333333  0.76666667  1
  O  O10363  1  0.83333333  0.43333333  0.96666667  1
  O  O10364  1  0.83333333  0.63333333  0.16666667  1
  O  O10365  1  0.83333333  0.63333333  0.36666667  1
  O  O10366  1  0.83333333  0.63333333  0.56666667  1
  O  O10367  1  0.83333333  0.63333333  0.76666667  1
  O  O10368  1  0.83333333  0.63333333  0.96666667  1
  O  O10369  1  0.83333333  0.83333333  0.16666667  1
  O  O10370  1  0.83333333  0.83333333  0.36666667  1
  O  O10371  1  0.83333333  0.83333333  0.56666667  1
  O  O10372  1  0.83333333  0.83333333  0.76666667  1
  O  O10373  1  0.83333333  0.83333333  0.96666667  1
  O  O10374  1  0.03333333  0.10000000  0.03333333  1
  O  O10375  1  0.03333333  0.10000000  0.23333333  1
  O  O10376  1  0.03333333  0.10000000  0.43333333  1
  O  O10377  1  0.03333333  0.10000000  0.63333333  1
  O  O10378  1  0.03333333  0.10000000  0.83333333  1
  O  O10379  1  0.03333333  0.30000000  0.03333333  1
  O  O10380  1  0.03333333  0.30000000  0.23333333  1
  O  O10381  1  0.03333333  0.30000000  0.43333333  1
  O  O10382  1  0.03333333  0.30000000  0.63333333  1
  O  O10383  1  0.03333333  0.30000000  0.83333333  1
  O  O10384  1  0.03333333  0.50000000  0.03333333  1
  O  O10385  1  0.03333333  0.50000000  0.23333333  1
  O  O10386  1  0.03333333  0.50000000  0.43333333  1
  O  O10387  1  0.03333333  0.50000000  0.63333333  1
  O  O10388  1  0.03333333  0.50000000  0.83333333  1
  O  O10389  1  0.03333333  0.70000000  0.03333333  1
  O  O10390  1  0.03333333  0.70000000  0.23333333  1
  O  O10391  1  0.03333333  0.70000000  0.43333333  1
  O  O10392  1  0.03333333  0.70000000  0.63333333  1
  O  O10393  1  0.03333333  0.70000000  0.83333333  1
  O  O10394  1  0.03333333  0.90000000  0.03333333  1
  O  O10395  1  0.03333333  0.90000000  0.23333333  1
  O  O10396  1  0.03333333  0.90000000  0.43333333  1
  O  O10397  1  0.03333333  0.90000000  0.63333333  1
  O  O10398  1  0.03333333  0.90000000  0.83333333  1
  O  O10399  1  0.23333333  0.10000000  0.03333333  1
  O  O10400  1  0.23333333  0.10000000  0.23333333  1
  O  O10401  1  0.23333333  0.10000000  0.43333333  1
  O  O10402  1  0.23333333  0.10000000  0.63333333  1
  O  O10403  1  0.23333333  0.10000000  0.83333333  1
  O  O10404  1  0.23333333  0.30000000  0.03333333  1
  O  O10405  1  0.23333333  0.30000000  0.23333333  1
  O  O10406  1  0.23333333  0.30000000  0.43333333  1
  O  O10407  1  0.23333333  0.30000000  0.63333333  1
  O  O10408  1  0.23333333  0.30000000  0.83333333  1
  O  O10409  1  0.23333333  0.50000000  0.03333333  1
  O  O10410  1  0.23333333  0.50000000  0.23333333  1
  O  O10411  1  0.23333333  0.50000000  0.43333333  1
  O  O10412  1  0.23333333  0.50000000  0.63333333  1
  O  O10413  1  0.23333333  0.50000000  0.83333333  1
  O  O10414  1  0.23333333  0.70000000  0.03333333  1
  O  O10415  1  0.23333333  0.70000000  0.23333333  1
  O  O10416  1  0.23333333  0.70000000  0.43333333  1
  O  O10417  1  0.23333333  0.70000000  0.63333333  1
  O  O10418  1  0.23333333  0.70000000  0.83333333  1
  O  O10419  1  0.23333333  0.90000000  0.03333333  1
  O  O10420  1  0.23333333  0.90000000  0.23333333  1
  O  O10421  1  0.23333333  0.90000000  0.43333333  1
  O  O10422  1  0.23333333  0.90000000  0.63333333  1
  O  O10423  1  0.23333333  0.90000000  0.83333333  1
  O  O10424  1  0.43333333  0.10000000  0.03333333  1
  O  O10425  1  0.43333333  0.10000000  0.23333333  1
  O  O10426  1  0.43333333  0.10000000  0.43333333  1
  O  O10427  1  0.43333333  0.10000000  0.63333333  1
  O  O10428  1  0.43333333  0.10000000  0.83333333  1
  O  O10429  1  0.43333333  0.30000000  0.03333333  1
  O  O10430  1  0.43333333  0.30000000  0.23333333  1
  O  O10431  1  0.43333333  0.30000000  0.43333333  1
  O  O10432  1  0.43333333  0.30000000  0.63333333  1
  O  O10433  1  0.43333333  0.30000000  0.83333333  1
  O  O10434  1  0.43333333  0.50000000  0.03333333  1
  O  O10435  1  0.43333333  0.50000000  0.23333333  1
  O  O10436  1  0.43333333  0.50000000  0.43333333  1
  O  O10437  1  0.43333333  0.50000000  0.63333333  1
  O  O10438  1  0.43333333  0.50000000  0.83333333  1
  O  O10439  1  0.43333333  0.70000000  0.03333333  1
  O  O10440  1  0.43333333  0.70000000  0.23333333  1
  O  O10441  1  0.43333333  0.70000000  0.43333333  1
  O  O10442  1  0.43333333  0.70000000  0.63333333  1
  O  O10443  1  0.43333333  0.70000000  0.83333333  1
  O  O10444  1  0.43333333  0.90000000  0.03333333  1
  O  O10445  1  0.43333333  0.90000000  0.23333333  1
  O  O10446  1  0.43333333  0.90000000  0.43333333  1
  O  O10447  1  0.43333333  0.90000000  0.63333333  1
  O  O10448  1  0.43333333  0.90000000  0.83333333  1
  O  O10449  1  0.63333333  0.10000000  0.03333333  1
  O  O10450  1  0.63333333  0.10000000  0.23333333  1
  O  O10451  1  0.63333333  0.10000000  0.43333333  1
  O  O10452  1  0.63333333  0.10000000  0.63333333  1
  O  O10453  1  0.63333333  0.10000000  0.83333333  1
  O  O10454  1  0.63333333  0.30000000  0.03333333  1
  O  O10455  1  0.63333333  0.30000000  0.23333333  1
  O  O10456  1  0.63333333  0.30000000  0.43333333  1
  O  O10457  1  0.63333333  0.30000000  0.63333333  1
  O  O10458  1  0.63333333  0.30000000  0.83333333  1
  O  O10459  1  0.63333333  0.50000000  0.03333333  1
  O  O10460  1  0.63333333  0.50000000  0.23333333  1
  O  O10461  1  0.63333333  0.50000000  0.43333333  1
  O  O10462  1  0.63333333  0.50000000  0.63333333  1
  O  O10463  1  0.63333333  0.50000000  0.83333333  1
  O  O10464  1  0.63333333  0.70000000  0.03333333  1
  O  O10465  1  0.63333333  0.70000000  0.23333333  1
  O  O10466  1  0.63333333  0.70000000  0.43333333  1
  O  O10467  1  0.63333333  0.70000000  0.63333333  1
  O  O10468  1  0.63333333  0.70000000  0.83333333  1
  O  O10469  1  0.63333333  0.90000000  0.03333333  1
  O  O10470  1  0.63333333  0.90000000  0.23333333  1
  O  O10471  1  0.63333333  0.90000000  0.43333333  1
  O  O10472  1  0.63333333  0.90000000  0.63333333  1
  O  O10473  1  0.63333333  0.90000000  0.83333333  1
  O  O10474  1  0.83333333  0.10000000  0.03333333  1
  O  O10475  1  0.83333333  0.10000000  0.23333333  1
  O  O10476  1  0.83333333  0.10000000  0.43333333  1
  O  O10477  1  0.83333333  0.10000000  0.63333333  1
  O  O10478  1  0.83333333  0.10000000  0.83333333  1
  O  O10479  1  0.83333333  0.30000000  0.03333333  1
  O  O10480  1  0.83333333  0.30000000  0.23333333  1
  O  O10481  1  0.83333333  0.30000000  0.43333333  1
  O  O10482  1  0.83333333  0.30000000  0.63333333  1
  O  O10483  1  0.83333333  0.30000000  0.83333333  1
  O  O10484  1  0.83333333  0.50000000  0.03333333  1
  O  O10485  1  0.83333333  0.50000000  0.23333333  1
  O  O10486  1  0.83333333  0.50000000  0.43333333  1
  O  O10487  1  0.83333333  0.50000000  0.63333333  1
  O  O10488  1  0.83333333  0.50000000  0.83333333  1
  O  O10489  1  0.83333333  0.70000000  0.03333333  1
  O  O10490  1  0.83333333  0.70000000  0.23333333  1
  O  O10491  1  0.83333333  0.70000000  0.43333333  1
  O  O10492  1  0.83333333  0.70000000  0.63333333  1
  O  O10493  1  0.83333333  0.70000000  0.83333333  1
  O  O10494  1  0.83333333  0.90000000  0.03333333  1
  O  O10495  1  0.83333333  0.90000000  0.23333333  1
  O  O10496  1  0.83333333  0.90000000  0.43333333  1
  O  O10497  1  0.83333333  0.90000000  0.63333333  1
  O  O10498  1  0.83333333  0.90000000  0.83333333  1
  O  O10499  1  0.03333333  0.10000000  0.10000000  1
  O  O10500  1  0.03333333  0.10000000  0.30000000  1
  O  O10501  1  0.03333333  0.10000000  0.50000000  1
  O  O10502  1  0.03333333  0.10000000  0.70000000  1
  O  O10503  1  0.03333333  0.10000000  0.90000000  1
  O  O10504  1  0.03333333  0.30000000  0.10000000  1
  O  O10505  1  0.03333333  0.30000000  0.30000000  1
  O  O10506  1  0.03333333  0.30000000  0.50000000  1
  O  O10507  1  0.03333333  0.30000000  0.70000000  1
  O  O10508  1  0.03333333  0.30000000  0.90000000  1
  O  O10509  1  0.03333333  0.50000000  0.10000000  1
  O  O10510  1  0.03333333  0.50000000  0.30000000  1
  O  O10511  1  0.03333333  0.50000000  0.50000000  1
  O  O10512  1  0.03333333  0.50000000  0.70000000  1
  O  O10513  1  0.03333333  0.50000000  0.90000000  1
  O  O10514  1  0.03333333  0.70000000  0.10000000  1
  O  O10515  1  0.03333333  0.70000000  0.30000000  1
  O  O10516  1  0.03333333  0.70000000  0.50000000  1
  O  O10517  1  0.03333333  0.70000000  0.70000000  1
  O  O10518  1  0.03333333  0.70000000  0.90000000  1
  O  O10519  1  0.03333333  0.90000000  0.10000000  1
  O  O10520  1  0.03333333  0.90000000  0.30000000  1
  O  O10521  1  0.03333333  0.90000000  0.50000000  1
  O  O10522  1  0.03333333  0.90000000  0.70000000  1
  O  O10523  1  0.03333333  0.90000000  0.90000000  1
  O  O10524  1  0.23333333  0.10000000  0.10000000  1
  O  O10525  1  0.23333333  0.10000000  0.30000000  1
  O  O10526  1  0.23333333  0.10000000  0.50000000  1
  O  O10527  1  0.23333333  0.10000000  0.70000000  1
  O  O10528  1  0.23333333  0.10000000  0.90000000  1
  O  O10529  1  0.23333333  0.30000000  0.10000000  1
  O  O10530  1  0.23333333  0.30000000  0.30000000  1
  O  O10531  1  0.23333333  0.30000000  0.50000000  1
  O  O10532  1  0.23333333  0.30000000  0.70000000  1
  O  O10533  1  0.23333333  0.30000000  0.90000000  1
  O  O10534  1  0.23333333  0.50000000  0.10000000  1
  O  O10535  1  0.23333333  0.50000000  0.30000000  1
  O  O10536  1  0.23333333  0.50000000  0.50000000  1
  O  O10537  1  0.23333333  0.50000000  0.70000000  1
  O  O10538  1  0.23333333  0.50000000  0.90000000  1
  O  O10539  1  0.23333333  0.70000000  0.10000000  1
  O  O10540  1  0.23333333  0.70000000  0.30000000  1
  O  O10541  1  0.23333333  0.70000000  0.50000000  1
  O  O10542  1  0.23333333  0.70000000  0.70000000  1
  O  O10543  1  0.23333333  0.70000000  0.90000000  1
  O  O10544  1  0.23333333  0.90000000  0.10000000  1
  O  O10545  1  0.23333333  0.90000000  0.30000000  1
  O  O10546  1  0.23333333  0.90000000  0.50000000  1
  O  O10547  1  0.23333333  0.90000000  0.70000000  1
  O  O10548  1  0.23333333  0.90000000  0.90000000  1
  O  O10549  1  0.43333333  0.10000000  0.10000000  1
  O  O10550  1  0.43333333  0.10000000  0.30000000  1
  O  O10551  1  0.43333333  0.10000000  0.50000000  1
  O  O10552  1  0.43333333  0.10000000  0.70000000  1
  O  O10553  1  0.43333333  0.10000000  0.90000000  1
  O  O10554  1  0.43333333  0.30000000  0.10000000  1
  O  O10555  1  0.43333333  0.30000000  0.30000000  1
  O  O10556  1  0.43333333  0.30000000  0.50000000  1
  O  O10557  1  0.43333333  0.30000000  0.70000000  1
  O  O10558  1  0.43333333  0.30000000  0.90000000  1
  O  O10559  1  0.43333333  0.50000000  0.10000000  1
  O  O10560  1  0.43333333  0.50000000  0.30000000  1
  O  O10561  1  0.43333333  0.50000000  0.50000000  1
  O  O10562  1  0.43333333  0.50000000  0.70000000  1
  O  O10563  1  0.43333333  0.50000000  0.90000000  1
  O  O10564  1  0.43333333  0.70000000  0.10000000  1
  O  O10565  1  0.43333333  0.70000000  0.30000000  1
  O  O10566  1  0.43333333  0.70000000  0.50000000  1
  O  O10567  1  0.43333333  0.70000000  0.70000000  1
  O  O10568  1  0.43333333  0.70000000  0.90000000  1
  O  O10569  1  0.43333333  0.90000000  0.10000000  1
  O  O10570  1  0.43333333  0.90000000  0.30000000  1
  O  O10571  1  0.43333333  0.90000000  0.50000000  1
  O  O10572  1  0.43333333  0.90000000  0.70000000  1
  O  O10573  1  0.43333333  0.90000000  0.90000000  1
  O  O10574  1  0.63333333  0.10000000  0.10000000  1
  O  O10575  1  0.63333333  0.10000000  0.30000000  1
  O  O10576  1  0.63333333  0.10000000  0.50000000  1
  O  O10577  1  0.63333333  0.10000000  0.70000000  1
  O  O10578  1  0.63333333  0.10000000  0.90000000  1
  O  O10579  1  0.63333333  0.30000000  0.10000000  1
  O  O10580  1  0.63333333  0.30000000  0.30000000  1
  O  O10581  1  0.63333333  0.30000000  0.50000000  1
  O  O10582  1  0.63333333  0.30000000  0.70000000  1
  O  O10583  1  0.63333333  0.30000000  0.90000000  1
  O  O10584  1  0.63333333  0.50000000  0.10000000  1
  O  O10585  1  0.63333333  0.50000000  0.30000000  1
  O  O10586  1  0.63333333  0.50000000  0.50000000  1
  O  O10587  1  0.63333333  0.50000000  0.70000000  1
  O  O10588  1  0.63333333  0.50000000  0.90000000  1
  O  O10589  1  0.63333333  0.70000000  0.10000000  1
  O  O10590  1  0.63333333  0.70000000  0.30000000  1
  O  O10591  1  0.63333333  0.70000000  0.50000000  1
  O  O10592  1  0.63333333  0.70000000  0.70000000  1
  O  O10593  1  0.63333333  0.70000000  0.90000000  1
  O  O10594  1  0.63333333  0.90000000  0.10000000  1
  O  O10595  1  0.63333333  0.90000000  0.30000000  1
  O  O10596  1  0.63333333  0.90000000  0.50000000  1
  O  O10597  1  0.63333333  0.90000000  0.70000000  1
  O  O10598  1  0.63333333  0.90000000  0.90000000  1
  O  O10599  1  0.83333333  0.10000000  0.10000000  1
  O  O10600  1  0.83333333  0.10000000  0.30000000  1
  O  O10601  1  0.83333333  0.10000000  0.50000000  1
  O  O10602  1  0.83333333  0.10000000  0.70000000  1
  O  O10603  1  0.83333333  0.10000000  0.90000000  1
  O  O10604  1  0.83333333  0.30000000  0.10000000  1
  O  O10605  1  0.83333333  0.30000000  0.30000000  1
  O  O10606  1  0.83333333  0.30000000  0.50000000  1
  O  O10607  1  0.83333333  0.30000000  0.70000000  1
  O  O10608  1  0.83333333  0.30000000  0.90000000  1
  O  O10609  1  0.83333333  0.50000000  0.10000000  1
  O  O10610  1  0.83333333  0.50000000  0.30000000  1
  O  O10611  1  0.83333333  0.50000000  0.50000000  1
  O  O10612  1  0.83333333  0.50000000  0.70000000  1
  O  O10613  1  0.83333333  0.50000000  0.90000000  1
  O  O10614  1  0.83333333  0.70000000  0.10000000  1
  O  O10615  1  0.83333333  0.70000000  0.30000000  1
  O  O10616  1  0.83333333  0.70000000  0.50000000  1
  O  O10617  1  0.83333333  0.70000000  0.70000000  1
  O  O10618  1  0.83333333  0.70000000  0.90000000  1
  O  O10619  1  0.83333333  0.90000000  0.10000000  1
  O  O10620  1  0.83333333  0.90000000  0.30000000  1
  O  O10621  1  0.83333333  0.90000000  0.50000000  1
  O  O10622  1  0.83333333  0.90000000  0.70000000  1
  O  O10623  1  0.83333333  0.90000000  0.90000000  1
  O  O10624  1  0.03333333  0.10000000  0.16666667  1
  O  O10625  1  0.03333333  0.10000000  0.36666667  1
  O  O10626  1  0.03333333  0.10000000  0.56666667  1
  O  O10627  1  0.03333333  0.10000000  0.76666667  1
  O  O10628  1  0.03333333  0.10000000  0.96666667  1
  O  O10629  1  0.03333333  0.30000000  0.16666667  1
  O  O10630  1  0.03333333  0.30000000  0.36666667  1
  O  O10631  1  0.03333333  0.30000000  0.56666667  1
  O  O10632  1  0.03333333  0.30000000  0.76666667  1
  O  O10633  1  0.03333333  0.30000000  0.96666667  1
  O  O10634  1  0.03333333  0.50000000  0.16666667  1
  O  O10635  1  0.03333333  0.50000000  0.36666667  1
  O  O10636  1  0.03333333  0.50000000  0.56666667  1
  O  O10637  1  0.03333333  0.50000000  0.76666667  1
  O  O10638  1  0.03333333  0.50000000  0.96666667  1
  O  O10639  1  0.03333333  0.70000000  0.16666667  1
  O  O10640  1  0.03333333  0.70000000  0.36666667  1
  O  O10641  1  0.03333333  0.70000000  0.56666667  1
  O  O10642  1  0.03333333  0.70000000  0.76666667  1
  O  O10643  1  0.03333333  0.70000000  0.96666667  1
  O  O10644  1  0.03333333  0.90000000  0.16666667  1
  O  O10645  1  0.03333333  0.90000000  0.36666667  1
  O  O10646  1  0.03333333  0.90000000  0.56666667  1
  O  O10647  1  0.03333333  0.90000000  0.76666667  1
  O  O10648  1  0.03333333  0.90000000  0.96666667  1
  O  O10649  1  0.23333333  0.10000000  0.16666667  1
  O  O10650  1  0.23333333  0.10000000  0.36666667  1
  O  O10651  1  0.23333333  0.10000000  0.56666667  1
  O  O10652  1  0.23333333  0.10000000  0.76666667  1
  O  O10653  1  0.23333333  0.10000000  0.96666667  1
  O  O10654  1  0.23333333  0.30000000  0.16666667  1
  O  O10655  1  0.23333333  0.30000000  0.36666667  1
  O  O10656  1  0.23333333  0.30000000  0.56666667  1
  O  O10657  1  0.23333333  0.30000000  0.76666667  1
  O  O10658  1  0.23333333  0.30000000  0.96666667  1
  O  O10659  1  0.23333333  0.50000000  0.16666667  1
  O  O10660  1  0.23333333  0.50000000  0.36666667  1
  O  O10661  1  0.23333333  0.50000000  0.56666667  1
  O  O10662  1  0.23333333  0.50000000  0.76666667  1
  O  O10663  1  0.23333333  0.50000000  0.96666667  1
  O  O10664  1  0.23333333  0.70000000  0.16666667  1
  O  O10665  1  0.23333333  0.70000000  0.36666667  1
  O  O10666  1  0.23333333  0.70000000  0.56666667  1
  O  O10667  1  0.23333333  0.70000000  0.76666667  1
  O  O10668  1  0.23333333  0.70000000  0.96666667  1
  O  O10669  1  0.23333333  0.90000000  0.16666667  1
  O  O10670  1  0.23333333  0.90000000  0.36666667  1
  O  O10671  1  0.23333333  0.90000000  0.56666667  1
  O  O10672  1  0.23333333  0.90000000  0.76666667  1
  O  O10673  1  0.23333333  0.90000000  0.96666667  1
  O  O10674  1  0.43333333  0.10000000  0.16666667  1
  O  O10675  1  0.43333333  0.10000000  0.36666667  1
  O  O10676  1  0.43333333  0.10000000  0.56666667  1
  O  O10677  1  0.43333333  0.10000000  0.76666667  1
  O  O10678  1  0.43333333  0.10000000  0.96666667  1
  O  O10679  1  0.43333333  0.30000000  0.16666667  1
  O  O10680  1  0.43333333  0.30000000  0.36666667  1
  O  O10681  1  0.43333333  0.30000000  0.56666667  1
  O  O10682  1  0.43333333  0.30000000  0.76666667  1
  O  O10683  1  0.43333333  0.30000000  0.96666667  1
  O  O10684  1  0.43333333  0.50000000  0.16666667  1
  O  O10685  1  0.43333333  0.50000000  0.36666667  1
  O  O10686  1  0.43333333  0.50000000  0.56666667  1
  O  O10687  1  0.43333333  0.50000000  0.76666667  1
  O  O10688  1  0.43333333  0.50000000  0.96666667  1
  O  O10689  1  0.43333333  0.70000000  0.16666667  1
  O  O10690  1  0.43333333  0.70000000  0.36666667  1
  O  O10691  1  0.43333333  0.70000000  0.56666667  1
  O  O10692  1  0.43333333  0.70000000  0.76666667  1
  O  O10693  1  0.43333333  0.70000000  0.96666667  1
  O  O10694  1  0.43333333  0.90000000  0.16666667  1
  O  O10695  1  0.43333333  0.90000000  0.36666667  1
  O  O10696  1  0.43333333  0.90000000  0.56666667  1
  O  O10697  1  0.43333333  0.90000000  0.76666667  1
  O  O10698  1  0.43333333  0.90000000  0.96666667  1
  O  O10699  1  0.63333333  0.10000000  0.16666667  1
  O  O10700  1  0.63333333  0.10000000  0.36666667  1
  O  O10701  1  0.63333333  0.10000000  0.56666667  1
  O  O10702  1  0.63333333  0.10000000  0.76666667  1
  O  O10703  1  0.63333333  0.10000000  0.96666667  1
  O  O10704  1  0.63333333  0.30000000  0.16666667  1
  O  O10705  1  0.63333333  0.30000000  0.36666667  1
  O  O10706  1  0.63333333  0.30000000  0.56666667  1
  O  O10707  1  0.63333333  0.30000000  0.76666667  1
  O  O10708  1  0.63333333  0.30000000  0.96666667  1
  O  O10709  1  0.63333333  0.50000000  0.16666667  1
  O  O10710  1  0.63333333  0.50000000  0.36666667  1
  O  O10711  1  0.63333333  0.50000000  0.56666667  1
  O  O10712  1  0.63333333  0.50000000  0.76666667  1
  O  O10713  1  0.63333333  0.50000000  0.96666667  1
  O  O10714  1  0.63333333  0.70000000  0.16666667  1
  O  O10715  1  0.63333333  0.70000000  0.36666667  1
  O  O10716  1  0.63333333  0.70000000  0.56666667  1
  O  O10717  1  0.63333333  0.70000000  0.76666667  1
  O  O10718  1  0.63333333  0.70000000  0.96666667  1
  O  O10719  1  0.63333333  0.90000000  0.16666667  1
  O  O10720  1  0.63333333  0.90000000  0.36666667  1
  O  O10721  1  0.63333333  0.90000000  0.56666667  1
  O  O10722  1  0.63333333  0.90000000  0.76666667  1
  O  O10723  1  0.63333333  0.90000000  0.96666667  1
  O  O10724  1  0.83333333  0.10000000  0.16666667  1
  O  O10725  1  0.83333333  0.10000000  0.36666667  1
  O  O10726  1  0.83333333  0.10000000  0.56666667  1
  O  O10727  1  0.83333333  0.10000000  0.76666667  1
  O  O10728  1  0.83333333  0.10000000  0.96666667  1
  O  O10729  1  0.83333333  0.30000000  0.16666667  1
  O  O10730  1  0.83333333  0.30000000  0.36666667  1
  O  O10731  1  0.83333333  0.30000000  0.56666667  1
  O  O10732  1  0.83333333  0.30000000  0.76666667  1
  O  O10733  1  0.83333333  0.30000000  0.96666667  1
  O  O10734  1  0.83333333  0.50000000  0.16666667  1
  O  O10735  1  0.83333333  0.50000000  0.36666667  1
  O  O10736  1  0.83333333  0.50000000  0.56666667  1
  O  O10737  1  0.83333333  0.50000000  0.76666667  1
  O  O10738  1  0.83333333  0.50000000  0.96666667  1
  O  O10739  1  0.83333333  0.70000000  0.16666667  1
  O  O10740  1  0.83333333  0.70000000  0.36666667  1
  O  O10741  1  0.83333333  0.70000000  0.56666667  1
  O  O10742  1  0.83333333  0.70000000  0.76666667  1
  O  O10743  1  0.83333333  0.70000000  0.96666667  1
  O  O10744  1  0.83333333  0.90000000  0.16666667  1
  O  O10745  1  0.83333333  0.90000000  0.36666667  1
  O  O10746  1  0.83333333  0.90000000  0.56666667  1
  O  O10747  1  0.83333333  0.90000000  0.76666667  1
  O  O10748  1  0.83333333  0.90000000  0.96666667  1
  O  O10749  1  0.03333333  0.16666667  0.03333333  1
  O  O10750  1  0.03333333  0.16666667  0.23333333  1
  O  O10751  1  0.03333333  0.16666667  0.43333333  1
  O  O10752  1  0.03333333  0.16666667  0.63333333  1
  O  O10753  1  0.03333333  0.16666667  0.83333333  1
  O  O10754  1  0.03333333  0.36666667  0.03333333  1
  O  O10755  1  0.03333333  0.36666667  0.23333333  1
  O  O10756  1  0.03333333  0.36666667  0.43333333  1
  O  O10757  1  0.03333333  0.36666667  0.63333333  1
  O  O10758  1  0.03333333  0.36666667  0.83333333  1
  O  O10759  1  0.03333333  0.56666667  0.03333333  1
  O  O10760  1  0.03333333  0.56666667  0.23333333  1
  O  O10761  1  0.03333333  0.56666667  0.43333333  1
  O  O10762  1  0.03333333  0.56666667  0.63333333  1
  O  O10763  1  0.03333333  0.56666667  0.83333333  1
  O  O10764  1  0.03333333  0.76666667  0.03333333  1
  O  O10765  1  0.03333333  0.76666667  0.23333333  1
  O  O10766  1  0.03333333  0.76666667  0.43333333  1
  O  O10767  1  0.03333333  0.76666667  0.63333333  1
  O  O10768  1  0.03333333  0.76666667  0.83333333  1
  O  O10769  1  0.03333333  0.96666667  0.03333333  1
  O  O10770  1  0.03333333  0.96666667  0.23333333  1
  O  O10771  1  0.03333333  0.96666667  0.43333333  1
  O  O10772  1  0.03333333  0.96666667  0.63333333  1
  O  O10773  1  0.03333333  0.96666667  0.83333333  1
  O  O10774  1  0.23333333  0.16666667  0.03333333  1
  O  O10775  1  0.23333333  0.16666667  0.23333333  1
  O  O10776  1  0.23333333  0.16666667  0.43333333  1
  O  O10777  1  0.23333333  0.16666667  0.63333333  1
  O  O10778  1  0.23333333  0.16666667  0.83333333  1
  O  O10779  1  0.23333333  0.36666667  0.03333333  1
  O  O10780  1  0.23333333  0.36666667  0.23333333  1
  O  O10781  1  0.23333333  0.36666667  0.43333333  1
  O  O10782  1  0.23333333  0.36666667  0.63333333  1
  O  O10783  1  0.23333333  0.36666667  0.83333333  1
  O  O10784  1  0.23333333  0.56666667  0.03333333  1
  O  O10785  1  0.23333333  0.56666667  0.23333333  1
  O  O10786  1  0.23333333  0.56666667  0.43333333  1
  O  O10787  1  0.23333333  0.56666667  0.63333333  1
  O  O10788  1  0.23333333  0.56666667  0.83333333  1
  O  O10789  1  0.23333333  0.76666667  0.03333333  1
  O  O10790  1  0.23333333  0.76666667  0.23333333  1
  O  O10791  1  0.23333333  0.76666667  0.43333333  1
  O  O10792  1  0.23333333  0.76666667  0.63333333  1
  O  O10793  1  0.23333333  0.76666667  0.83333333  1
  O  O10794  1  0.23333333  0.96666667  0.03333333  1
  O  O10795  1  0.23333333  0.96666667  0.23333333  1
  O  O10796  1  0.23333333  0.96666667  0.43333333  1
  O  O10797  1  0.23333333  0.96666667  0.63333333  1
  O  O10798  1  0.23333333  0.96666667  0.83333333  1
  O  O10799  1  0.43333333  0.16666667  0.03333333  1
  O  O10800  1  0.43333333  0.16666667  0.23333333  1
  O  O10801  1  0.43333333  0.16666667  0.43333333  1
  O  O10802  1  0.43333333  0.16666667  0.63333333  1
  O  O10803  1  0.43333333  0.16666667  0.83333333  1
  O  O10804  1  0.43333333  0.36666667  0.03333333  1
  O  O10805  1  0.43333333  0.36666667  0.23333333  1
  O  O10806  1  0.43333333  0.36666667  0.43333333  1
  O  O10807  1  0.43333333  0.36666667  0.63333333  1
  O  O10808  1  0.43333333  0.36666667  0.83333333  1
  O  O10809  1  0.43333333  0.56666667  0.03333333  1
  O  O10810  1  0.43333333  0.56666667  0.23333333  1
  O  O10811  1  0.43333333  0.56666667  0.43333333  1
  O  O10812  1  0.43333333  0.56666667  0.63333333  1
  O  O10813  1  0.43333333  0.56666667  0.83333333  1
  O  O10814  1  0.43333333  0.76666667  0.03333333  1
  O  O10815  1  0.43333333  0.76666667  0.23333333  1
  O  O10816  1  0.43333333  0.76666667  0.43333333  1
  O  O10817  1  0.43333333  0.76666667  0.63333333  1
  O  O10818  1  0.43333333  0.76666667  0.83333333  1
  O  O10819  1  0.43333333  0.96666667  0.03333333  1
  O  O10820  1  0.43333333  0.96666667  0.23333333  1
  O  O10821  1  0.43333333  0.96666667  0.43333333  1
  O  O10822  1  0.43333333  0.96666667  0.63333333  1
  O  O10823  1  0.43333333  0.96666667  0.83333333  1
  O  O10824  1  0.63333333  0.16666667  0.03333333  1
  O  O10825  1  0.63333333  0.16666667  0.23333333  1
  O  O10826  1  0.63333333  0.16666667  0.43333333  1
  O  O10827  1  0.63333333  0.16666667  0.63333333  1
  O  O10828  1  0.63333333  0.16666667  0.83333333  1
  O  O10829  1  0.63333333  0.36666667  0.03333333  1
  O  O10830  1  0.63333333  0.36666667  0.23333333  1
  O  O10831  1  0.63333333  0.36666667  0.43333333  1
  O  O10832  1  0.63333333  0.36666667  0.63333333  1
  O  O10833  1  0.63333333  0.36666667  0.83333333  1
  O  O10834  1  0.63333333  0.56666667  0.03333333  1
  O  O10835  1  0.63333333  0.56666667  0.23333333  1
  O  O10836  1  0.63333333  0.56666667  0.43333333  1
  O  O10837  1  0.63333333  0.56666667  0.63333333  1
  O  O10838  1  0.63333333  0.56666667  0.83333333  1
  O  O10839  1  0.63333333  0.76666667  0.03333333  1
  O  O10840  1  0.63333333  0.76666667  0.23333333  1
  O  O10841  1  0.63333333  0.76666667  0.43333333  1
  O  O10842  1  0.63333333  0.76666667  0.63333333  1
  O  O10843  1  0.63333333  0.76666667  0.83333333  1
  O  O10844  1  0.63333333  0.96666667  0.03333333  1
  O  O10845  1  0.63333333  0.96666667  0.23333333  1
  O  O10846  1  0.63333333  0.96666667  0.43333333  1
  O  O10847  1  0.63333333  0.96666667  0.63333333  1
  O  O10848  1  0.63333333  0.96666667  0.83333333  1
  O  O10849  1  0.83333333  0.16666667  0.03333333  1
  O  O10850  1  0.83333333  0.16666667  0.23333333  1
  O  O10851  1  0.83333333  0.16666667  0.43333333  1
  O  O10852  1  0.83333333  0.16666667  0.63333333  1
  O  O10853  1  0.83333333  0.16666667  0.83333333  1
  O  O10854  1  0.83333333  0.36666667  0.03333333  1
  O  O10855  1  0.83333333  0.36666667  0.23333333  1
  O  O10856  1  0.83333333  0.36666667  0.43333333  1
  O  O10857  1  0.83333333  0.36666667  0.63333333  1
  O  O10858  1  0.83333333  0.36666667  0.83333333  1
  O  O10859  1  0.83333333  0.56666667  0.03333333  1
  O  O10860  1  0.83333333  0.56666667  0.23333333  1
  O  O10861  1  0.83333333  0.56666667  0.43333333  1
  O  O10862  1  0.83333333  0.56666667  0.63333333  1
  O  O10863  1  0.83333333  0.56666667  0.83333333  1
  O  O10864  1  0.83333333  0.76666667  0.03333333  1
  O  O10865  1  0.83333333  0.76666667  0.23333333  1
  O  O10866  1  0.83333333  0.76666667  0.43333333  1
  O  O10867  1  0.83333333  0.76666667  0.63333333  1
  O  O10868  1  0.83333333  0.76666667  0.83333333  1
  O  O10869  1  0.83333333  0.96666667  0.03333333  1
  O  O10870  1  0.83333333  0.96666667  0.23333333  1
  O  O10871  1  0.83333333  0.96666667  0.43333333  1
  O  O10872  1  0.83333333  0.96666667  0.63333333  1
  O  O10873  1  0.83333333  0.96666667  0.83333333  1
  O  O10874  1  0.03333333  0.16666667  0.10000000  1
  O  O10875  1  0.03333333  0.16666667  0.30000000  1
  O  O10876  1  0.03333333  0.16666667  0.50000000  1
  O  O10877  1  0.03333333  0.16666667  0.70000000  1
  O  O10878  1  0.03333333  0.16666667  0.90000000  1
  O  O10879  1  0.03333333  0.36666667  0.10000000  1
  O  O10880  1  0.03333333  0.36666667  0.30000000  1
  O  O10881  1  0.03333333  0.36666667  0.50000000  1
  O  O10882  1  0.03333333  0.36666667  0.70000000  1
  O  O10883  1  0.03333333  0.36666667  0.90000000  1
  O  O10884  1  0.03333333  0.56666667  0.10000000  1
  O  O10885  1  0.03333333  0.56666667  0.30000000  1
  O  O10886  1  0.03333333  0.56666667  0.50000000  1
  O  O10887  1  0.03333333  0.56666667  0.70000000  1
  O  O10888  1  0.03333333  0.56666667  0.90000000  1
  O  O10889  1  0.03333333  0.76666667  0.10000000  1
  O  O10890  1  0.03333333  0.76666667  0.30000000  1
  O  O10891  1  0.03333333  0.76666667  0.50000000  1
  O  O10892  1  0.03333333  0.76666667  0.70000000  1
  O  O10893  1  0.03333333  0.76666667  0.90000000  1
  O  O10894  1  0.03333333  0.96666667  0.10000000  1
  O  O10895  1  0.03333333  0.96666667  0.30000000  1
  O  O10896  1  0.03333333  0.96666667  0.50000000  1
  O  O10897  1  0.03333333  0.96666667  0.70000000  1
  O  O10898  1  0.03333333  0.96666667  0.90000000  1
  O  O10899  1  0.23333333  0.16666667  0.10000000  1
  O  O10900  1  0.23333333  0.16666667  0.30000000  1
  O  O10901  1  0.23333333  0.16666667  0.50000000  1
  O  O10902  1  0.23333333  0.16666667  0.70000000  1
  O  O10903  1  0.23333333  0.16666667  0.90000000  1
  O  O10904  1  0.23333333  0.36666667  0.10000000  1
  O  O10905  1  0.23333333  0.36666667  0.30000000  1
  O  O10906  1  0.23333333  0.36666667  0.50000000  1
  O  O10907  1  0.23333333  0.36666667  0.70000000  1
  O  O10908  1  0.23333333  0.36666667  0.90000000  1
  O  O10909  1  0.23333333  0.56666667  0.10000000  1
  O  O10910  1  0.23333333  0.56666667  0.30000000  1
  O  O10911  1  0.23333333  0.56666667  0.50000000  1
  O  O10912  1  0.23333333  0.56666667  0.70000000  1
  O  O10913  1  0.23333333  0.56666667  0.90000000  1
  O  O10914  1  0.23333333  0.76666667  0.10000000  1
  O  O10915  1  0.23333333  0.76666667  0.30000000  1
  O  O10916  1  0.23333333  0.76666667  0.50000000  1
  O  O10917  1  0.23333333  0.76666667  0.70000000  1
  O  O10918  1  0.23333333  0.76666667  0.90000000  1
  O  O10919  1  0.23333333  0.96666667  0.10000000  1
  O  O10920  1  0.23333333  0.96666667  0.30000000  1
  O  O10921  1  0.23333333  0.96666667  0.50000000  1
  O  O10922  1  0.23333333  0.96666667  0.70000000  1
  O  O10923  1  0.23333333  0.96666667  0.90000000  1
  O  O10924  1  0.43333333  0.16666667  0.10000000  1
  O  O10925  1  0.43333333  0.16666667  0.30000000  1
  O  O10926  1  0.43333333  0.16666667  0.50000000  1
  O  O10927  1  0.43333333  0.16666667  0.70000000  1
  O  O10928  1  0.43333333  0.16666667  0.90000000  1
  O  O10929  1  0.43333333  0.36666667  0.10000000  1
  O  O10930  1  0.43333333  0.36666667  0.30000000  1
  O  O10931  1  0.43333333  0.36666667  0.50000000  1
  O  O10932  1  0.43333333  0.36666667  0.70000000  1
  O  O10933  1  0.43333333  0.36666667  0.90000000  1
  O  O10934  1  0.43333333  0.56666667  0.10000000  1
  O  O10935  1  0.43333333  0.56666667  0.30000000  1
  O  O10936  1  0.43333333  0.56666667  0.50000000  1
  O  O10937  1  0.43333333  0.56666667  0.70000000  1
  O  O10938  1  0.43333333  0.56666667  0.90000000  1
  O  O10939  1  0.43333333  0.76666667  0.10000000  1
  O  O10940  1  0.43333333  0.76666667  0.30000000  1
  O  O10941  1  0.43333333  0.76666667  0.50000000  1
  O  O10942  1  0.43333333  0.76666667  0.70000000  1
  O  O10943  1  0.43333333  0.76666667  0.90000000  1
  O  O10944  1  0.43333333  0.96666667  0.10000000  1
  O  O10945  1  0.43333333  0.96666667  0.30000000  1
  O  O10946  1  0.43333333  0.96666667  0.50000000  1
  O  O10947  1  0.43333333  0.96666667  0.70000000  1
  O  O10948  1  0.43333333  0.96666667  0.90000000  1
  O  O10949  1  0.63333333  0.16666667  0.10000000  1
  O  O10950  1  0.63333333  0.16666667  0.30000000  1
  O  O10951  1  0.63333333  0.16666667  0.50000000  1
  O  O10952  1  0.63333333  0.16666667  0.70000000  1
  O  O10953  1  0.63333333  0.16666667  0.90000000  1
  O  O10954  1  0.63333333  0.36666667  0.10000000  1
  O  O10955  1  0.63333333  0.36666667  0.30000000  1
  O  O10956  1  0.63333333  0.36666667  0.50000000  1
  O  O10957  1  0.63333333  0.36666667  0.70000000  1
  O  O10958  1  0.63333333  0.36666667  0.90000000  1
  O  O10959  1  0.63333333  0.56666667  0.10000000  1
  O  O10960  1  0.63333333  0.56666667  0.30000000  1
  O  O10961  1  0.63333333  0.56666667  0.50000000  1
  O  O10962  1  0.63333333  0.56666667  0.70000000  1
  O  O10963  1  0.63333333  0.56666667  0.90000000  1
  O  O10964  1  0.63333333  0.76666667  0.10000000  1
  O  O10965  1  0.63333333  0.76666667  0.30000000  1
  O  O10966  1  0.63333333  0.76666667  0.50000000  1
  O  O10967  1  0.63333333  0.76666667  0.70000000  1
  O  O10968  1  0.63333333  0.76666667  0.90000000  1
  O  O10969  1  0.63333333  0.96666667  0.10000000  1
  O  O10970  1  0.63333333  0.96666667  0.30000000  1
  O  O10971  1  0.63333333  0.96666667  0.50000000  1
  O  O10972  1  0.63333333  0.96666667  0.70000000  1
  O  O10973  1  0.63333333  0.96666667  0.90000000  1
  O  O10974  1  0.83333333  0.16666667  0.10000000  1
  O  O10975  1  0.83333333  0.16666667  0.30000000  1
  O  O10976  1  0.83333333  0.16666667  0.50000000  1
  O  O10977  1  0.83333333  0.16666667  0.70000000  1
  O  O10978  1  0.83333333  0.16666667  0.90000000  1
  O  O10979  1  0.83333333  0.36666667  0.10000000  1
  O  O10980  1  0.83333333  0.36666667  0.30000000  1
  O  O10981  1  0.83333333  0.36666667  0.50000000  1
  O  O10982  1  0.83333333  0.36666667  0.70000000  1
  O  O10983  1  0.83333333  0.36666667  0.90000000  1
  O  O10984  1  0.83333333  0.56666667  0.10000000  1
  O  O10985  1  0.83333333  0.56666667  0.30000000  1
  O  O10986  1  0.83333333  0.56666667  0.50000000  1
  O  O10987  1  0.83333333  0.56666667  0.70000000  1
  O  O10988  1  0.83333333  0.56666667  0.90000000  1
  O  O10989  1  0.83333333  0.76666667  0.10000000  1
  O  O10990  1  0.83333333  0.76666667  0.30000000  1
  O  O10991  1  0.83333333  0.76666667  0.50000000  1
  O  O10992  1  0.83333333  0.76666667  0.70000000  1
  O  O10993  1  0.83333333  0.76666667  0.90000000  1
  O  O10994  1  0.83333333  0.96666667  0.10000000  1
  O  O10995  1  0.83333333  0.96666667  0.30000000  1
  O  O10996  1  0.83333333  0.96666667  0.50000000  1
  O  O10997  1  0.83333333  0.96666667  0.70000000  1
  O  O10998  1  0.83333333  0.96666667  0.90000000  1
  O  O10999  1  0.03333333  0.16666667  0.16666667  1
  O  O11000  1  0.03333333  0.16666667  0.36666667  1
  O  O11001  1  0.03333333  0.16666667  0.56666667  1
  O  O11002  1  0.03333333  0.16666667  0.76666667  1
  O  O11003  1  0.03333333  0.16666667  0.96666667  1
  O  O11004  1  0.03333333  0.36666667  0.16666667  1
  O  O11005  1  0.03333333  0.36666667  0.36666667  1
  O  O11006  1  0.03333333  0.36666667  0.56666667  1
  O  O11007  1  0.03333333  0.36666667  0.76666667  1
  O  O11008  1  0.03333333  0.36666667  0.96666667  1
  O  O11009  1  0.03333333  0.56666667  0.16666667  1
  O  O11010  1  0.03333333  0.56666667  0.36666667  1
  O  O11011  1  0.03333333  0.56666667  0.56666667  1
  O  O11012  1  0.03333333  0.56666667  0.76666667  1
  O  O11013  1  0.03333333  0.56666667  0.96666667  1
  O  O11014  1  0.03333333  0.76666667  0.16666667  1
  O  O11015  1  0.03333333  0.76666667  0.36666667  1
  O  O11016  1  0.03333333  0.76666667  0.56666667  1
  O  O11017  1  0.03333333  0.76666667  0.76666667  1
  O  O11018  1  0.03333333  0.76666667  0.96666667  1
  O  O11019  1  0.03333333  0.96666667  0.16666667  1
  O  O11020  1  0.03333333  0.96666667  0.36666667  1
  O  O11021  1  0.03333333  0.96666667  0.56666667  1
  O  O11022  1  0.03333333  0.96666667  0.76666667  1
  O  O11023  1  0.03333333  0.96666667  0.96666667  1
  O  O11024  1  0.23333333  0.16666667  0.16666667  1
  O  O11025  1  0.23333333  0.16666667  0.36666667  1
  O  O11026  1  0.23333333  0.16666667  0.56666667  1
  O  O11027  1  0.23333333  0.16666667  0.76666667  1
  O  O11028  1  0.23333333  0.16666667  0.96666667  1
  O  O11029  1  0.23333333  0.36666667  0.16666667  1
  O  O11030  1  0.23333333  0.36666667  0.36666667  1
  O  O11031  1  0.23333333  0.36666667  0.56666667  1
  O  O11032  1  0.23333333  0.36666667  0.76666667  1
  O  O11033  1  0.23333333  0.36666667  0.96666667  1
  O  O11034  1  0.23333333  0.56666667  0.16666667  1
  O  O11035  1  0.23333333  0.56666667  0.36666667  1
  O  O11036  1  0.23333333  0.56666667  0.56666667  1
  O  O11037  1  0.23333333  0.56666667  0.76666667  1
  O  O11038  1  0.23333333  0.56666667  0.96666667  1
  O  O11039  1  0.23333333  0.76666667  0.16666667  1
  O  O11040  1  0.23333333  0.76666667  0.36666667  1
  O  O11041  1  0.23333333  0.76666667  0.56666667  1
  O  O11042  1  0.23333333  0.76666667  0.76666667  1
  O  O11043  1  0.23333333  0.76666667  0.96666667  1
  O  O11044  1  0.23333333  0.96666667  0.16666667  1
  O  O11045  1  0.23333333  0.96666667  0.36666667  1
  O  O11046  1  0.23333333  0.96666667  0.56666667  1
  O  O11047  1  0.23333333  0.96666667  0.76666667  1
  O  O11048  1  0.23333333  0.96666667  0.96666667  1
  O  O11049  1  0.43333333  0.16666667  0.16666667  1
  O  O11050  1  0.43333333  0.16666667  0.36666667  1
  O  O11051  1  0.43333333  0.16666667  0.56666667  1
  O  O11052  1  0.43333333  0.16666667  0.76666667  1
  O  O11053  1  0.43333333  0.16666667  0.96666667  1
  O  O11054  1  0.43333333  0.36666667  0.16666667  1
  O  O11055  1  0.43333333  0.36666667  0.36666667  1
  O  O11056  1  0.43333333  0.36666667  0.56666667  1
  O  O11057  1  0.43333333  0.36666667  0.76666667  1
  O  O11058  1  0.43333333  0.36666667  0.96666667  1
  O  O11059  1  0.43333333  0.56666667  0.16666667  1
  O  O11060  1  0.43333333  0.56666667  0.36666667  1
  O  O11061  1  0.43333333  0.56666667  0.56666667  1
  O  O11062  1  0.43333333  0.56666667  0.76666667  1
  O  O11063  1  0.43333333  0.56666667  0.96666667  1
  O  O11064  1  0.43333333  0.76666667  0.16666667  1
  O  O11065  1  0.43333333  0.76666667  0.36666667  1
  O  O11066  1  0.43333333  0.76666667  0.56666667  1
  O  O11067  1  0.43333333  0.76666667  0.76666667  1
  O  O11068  1  0.43333333  0.76666667  0.96666667  1
  O  O11069  1  0.43333333  0.96666667  0.16666667  1
  O  O11070  1  0.43333333  0.96666667  0.36666667  1
  O  O11071  1  0.43333333  0.96666667  0.56666667  1
  O  O11072  1  0.43333333  0.96666667  0.76666667  1
  O  O11073  1  0.43333333  0.96666667  0.96666667  1
  O  O11074  1  0.63333333  0.16666667  0.16666667  1
  O  O11075  1  0.63333333  0.16666667  0.36666667  1
  O  O11076  1  0.63333333  0.16666667  0.56666667  1
  O  O11077  1  0.63333333  0.16666667  0.76666667  1
  O  O11078  1  0.63333333  0.16666667  0.96666667  1
  O  O11079  1  0.63333333  0.36666667  0.16666667  1
  O  O11080  1  0.63333333  0.36666667  0.36666667  1
  O  O11081  1  0.63333333  0.36666667  0.56666667  1
  O  O11082  1  0.63333333  0.36666667  0.76666667  1
  O  O11083  1  0.63333333  0.36666667  0.96666667  1
  O  O11084  1  0.63333333  0.56666667  0.16666667  1
  O  O11085  1  0.63333333  0.56666667  0.36666667  1
  O  O11086  1  0.63333333  0.56666667  0.56666667  1
  O  O11087  1  0.63333333  0.56666667  0.76666667  1
  O  O11088  1  0.63333333  0.56666667  0.96666667  1
  O  O11089  1  0.63333333  0.76666667  0.16666667  1
  O  O11090  1  0.63333333  0.76666667  0.36666667  1
  O  O11091  1  0.63333333  0.76666667  0.56666667  1
  O  O11092  1  0.63333333  0.76666667  0.76666667  1
  O  O11093  1  0.63333333  0.76666667  0.96666667  1
  O  O11094  1  0.63333333  0.96666667  0.16666667  1
  O  O11095  1  0.63333333  0.96666667  0.36666667  1
  O  O11096  1  0.63333333  0.96666667  0.56666667  1
  O  O11097  1  0.63333333  0.96666667  0.76666667  1
  O  O11098  1  0.63333333  0.96666667  0.96666667  1
  O  O11099  1  0.83333333  0.16666667  0.16666667  1
  O  O11100  1  0.83333333  0.16666667  0.36666667  1
  O  O11101  1  0.83333333  0.16666667  0.56666667  1
  O  O11102  1  0.83333333  0.16666667  0.76666667  1
  O  O11103  1  0.83333333  0.16666667  0.96666667  1
  O  O11104  1  0.83333333  0.36666667  0.16666667  1
  O  O11105  1  0.83333333  0.36666667  0.36666667  1
  O  O11106  1  0.83333333  0.36666667  0.56666667  1
  O  O11107  1  0.83333333  0.36666667  0.76666667  1
  O  O11108  1  0.83333333  0.36666667  0.96666667  1
  O  O11109  1  0.83333333  0.56666667  0.16666667  1
  O  O11110  1  0.83333333  0.56666667  0.36666667  1
  O  O11111  1  0.83333333  0.56666667  0.56666667  1
  O  O11112  1  0.83333333  0.56666667  0.76666667  1
  O  O11113  1  0.83333333  0.56666667  0.96666667  1
  O  O11114  1  0.83333333  0.76666667  0.16666667  1
  O  O11115  1  0.83333333  0.76666667  0.36666667  1
  O  O11116  1  0.83333333  0.76666667  0.56666667  1
  O  O11117  1  0.83333333  0.76666667  0.76666667  1
  O  O11118  1  0.83333333  0.76666667  0.96666667  1
  O  O11119  1  0.83333333  0.96666667  0.16666667  1
  O  O11120  1  0.83333333  0.96666667  0.36666667  1
  O  O11121  1  0.83333333  0.96666667  0.56666667  1
  O  O11122  1  0.83333333  0.96666667  0.76666667  1
  O  O11123  1  0.83333333  0.96666667  0.96666667  1
  O  O11124  1  0.10000000  0.03333333  0.03333333  1
  O  O11125  1  0.10000000  0.03333333  0.23333333  1
  O  O11126  1  0.10000000  0.03333333  0.43333333  1
  O  O11127  1  0.10000000  0.03333333  0.63333333  1
  O  O11128  1  0.10000000  0.03333333  0.83333333  1
  O  O11129  1  0.10000000  0.23333333  0.03333333  1
  O  O11130  1  0.10000000  0.23333333  0.23333333  1
  O  O11131  1  0.10000000  0.23333333  0.43333333  1
  O  O11132  1  0.10000000  0.23333333  0.63333333  1
  O  O11133  1  0.10000000  0.23333333  0.83333333  1
  O  O11134  1  0.10000000  0.43333333  0.03333333  1
  O  O11135  1  0.10000000  0.43333333  0.23333333  1
  O  O11136  1  0.10000000  0.43333333  0.43333333  1
  O  O11137  1  0.10000000  0.43333333  0.63333333  1
  O  O11138  1  0.10000000  0.43333333  0.83333333  1
  O  O11139  1  0.10000000  0.63333333  0.03333333  1
  O  O11140  1  0.10000000  0.63333333  0.23333333  1
  O  O11141  1  0.10000000  0.63333333  0.43333333  1
  O  O11142  1  0.10000000  0.63333333  0.63333333  1
  O  O11143  1  0.10000000  0.63333333  0.83333333  1
  O  O11144  1  0.10000000  0.83333333  0.03333333  1
  O  O11145  1  0.10000000  0.83333333  0.23333333  1
  O  O11146  1  0.10000000  0.83333333  0.43333333  1
  O  O11147  1  0.10000000  0.83333333  0.63333333  1
  O  O11148  1  0.10000000  0.83333333  0.83333333  1
  O  O11149  1  0.30000000  0.03333333  0.03333333  1
  O  O11150  1  0.30000000  0.03333333  0.23333333  1
  O  O11151  1  0.30000000  0.03333333  0.43333333  1
  O  O11152  1  0.30000000  0.03333333  0.63333333  1
  O  O11153  1  0.30000000  0.03333333  0.83333333  1
  O  O11154  1  0.30000000  0.23333333  0.03333333  1
  O  O11155  1  0.30000000  0.23333333  0.23333333  1
  O  O11156  1  0.30000000  0.23333333  0.43333333  1
  O  O11157  1  0.30000000  0.23333333  0.63333333  1
  O  O11158  1  0.30000000  0.23333333  0.83333333  1
  O  O11159  1  0.30000000  0.43333333  0.03333333  1
  O  O11160  1  0.30000000  0.43333333  0.23333333  1
  O  O11161  1  0.30000000  0.43333333  0.43333333  1
  O  O11162  1  0.30000000  0.43333333  0.63333333  1
  O  O11163  1  0.30000000  0.43333333  0.83333333  1
  O  O11164  1  0.30000000  0.63333333  0.03333333  1
  O  O11165  1  0.30000000  0.63333333  0.23333333  1
  O  O11166  1  0.30000000  0.63333333  0.43333333  1
  O  O11167  1  0.30000000  0.63333333  0.63333333  1
  O  O11168  1  0.30000000  0.63333333  0.83333333  1
  O  O11169  1  0.30000000  0.83333333  0.03333333  1
  O  O11170  1  0.30000000  0.83333333  0.23333333  1
  O  O11171  1  0.30000000  0.83333333  0.43333333  1
  O  O11172  1  0.30000000  0.83333333  0.63333333  1
  O  O11173  1  0.30000000  0.83333333  0.83333333  1
  O  O11174  1  0.50000000  0.03333333  0.03333333  1
  O  O11175  1  0.50000000  0.03333333  0.23333333  1
  O  O11176  1  0.50000000  0.03333333  0.43333333  1
  O  O11177  1  0.50000000  0.03333333  0.63333333  1
  O  O11178  1  0.50000000  0.03333333  0.83333333  1
  O  O11179  1  0.50000000  0.23333333  0.03333333  1
  O  O11180  1  0.50000000  0.23333333  0.23333333  1
  O  O11181  1  0.50000000  0.23333333  0.43333333  1
  O  O11182  1  0.50000000  0.23333333  0.63333333  1
  O  O11183  1  0.50000000  0.23333333  0.83333333  1
  O  O11184  1  0.50000000  0.43333333  0.03333333  1
  O  O11185  1  0.50000000  0.43333333  0.23333333  1
  O  O11186  1  0.50000000  0.43333333  0.43333333  1
  O  O11187  1  0.50000000  0.43333333  0.63333333  1
  O  O11188  1  0.50000000  0.43333333  0.83333333  1
  O  O11189  1  0.50000000  0.63333333  0.03333333  1
  O  O11190  1  0.50000000  0.63333333  0.23333333  1
  O  O11191  1  0.50000000  0.63333333  0.43333333  1
  O  O11192  1  0.50000000  0.63333333  0.63333333  1
  O  O11193  1  0.50000000  0.63333333  0.83333333  1
  O  O11194  1  0.50000000  0.83333333  0.03333333  1
  O  O11195  1  0.50000000  0.83333333  0.23333333  1
  O  O11196  1  0.50000000  0.83333333  0.43333333  1
  O  O11197  1  0.50000000  0.83333333  0.63333333  1
  O  O11198  1  0.50000000  0.83333333  0.83333333  1
  O  O11199  1  0.70000000  0.03333333  0.03333333  1
  O  O11200  1  0.70000000  0.03333333  0.23333333  1
  O  O11201  1  0.70000000  0.03333333  0.43333333  1
  O  O11202  1  0.70000000  0.03333333  0.63333333  1
  O  O11203  1  0.70000000  0.03333333  0.83333333  1
  O  O11204  1  0.70000000  0.23333333  0.03333333  1
  O  O11205  1  0.70000000  0.23333333  0.23333333  1
  O  O11206  1  0.70000000  0.23333333  0.43333333  1
  O  O11207  1  0.70000000  0.23333333  0.63333333  1
  O  O11208  1  0.70000000  0.23333333  0.83333333  1
  O  O11209  1  0.70000000  0.43333333  0.03333333  1
  O  O11210  1  0.70000000  0.43333333  0.23333333  1
  O  O11211  1  0.70000000  0.43333333  0.43333333  1
  O  O11212  1  0.70000000  0.43333333  0.63333333  1
  O  O11213  1  0.70000000  0.43333333  0.83333333  1
  O  O11214  1  0.70000000  0.63333333  0.03333333  1
  O  O11215  1  0.70000000  0.63333333  0.23333333  1
  O  O11216  1  0.70000000  0.63333333  0.43333333  1
  O  O11217  1  0.70000000  0.63333333  0.63333333  1
  O  O11218  1  0.70000000  0.63333333  0.83333333  1
  O  O11219  1  0.70000000  0.83333333  0.03333333  1
  O  O11220  1  0.70000000  0.83333333  0.23333333  1
  O  O11221  1  0.70000000  0.83333333  0.43333333  1
  O  O11222  1  0.70000000  0.83333333  0.63333333  1
  O  O11223  1  0.70000000  0.83333333  0.83333333  1
  O  O11224  1  0.90000000  0.03333333  0.03333333  1
  O  O11225  1  0.90000000  0.03333333  0.23333333  1
  O  O11226  1  0.90000000  0.03333333  0.43333333  1
  O  O11227  1  0.90000000  0.03333333  0.63333333  1
  O  O11228  1  0.90000000  0.03333333  0.83333333  1
  O  O11229  1  0.90000000  0.23333333  0.03333333  1
  O  O11230  1  0.90000000  0.23333333  0.23333333  1
  O  O11231  1  0.90000000  0.23333333  0.43333333  1
  O  O11232  1  0.90000000  0.23333333  0.63333333  1
  O  O11233  1  0.90000000  0.23333333  0.83333333  1
  O  O11234  1  0.90000000  0.43333333  0.03333333  1
  O  O11235  1  0.90000000  0.43333333  0.23333333  1
  O  O11236  1  0.90000000  0.43333333  0.43333333  1
  O  O11237  1  0.90000000  0.43333333  0.63333333  1
  O  O11238  1  0.90000000  0.43333333  0.83333333  1
  O  O11239  1  0.90000000  0.63333333  0.03333333  1
  O  O11240  1  0.90000000  0.63333333  0.23333333  1
  O  O11241  1  0.90000000  0.63333333  0.43333333  1
  O  O11242  1  0.90000000  0.63333333  0.63333333  1
  O  O11243  1  0.90000000  0.63333333  0.83333333  1
  O  O11244  1  0.90000000  0.83333333  0.03333333  1
  O  O11245  1  0.90000000  0.83333333  0.23333333  1
  O  O11246  1  0.90000000  0.83333333  0.43333333  1
  O  O11247  1  0.90000000  0.83333333  0.63333333  1
  O  O11248  1  0.90000000  0.83333333  0.83333333  1
  O  O11249  1  0.10000000  0.03333333  0.10000000  1
  O  O11250  1  0.10000000  0.03333333  0.30000000  1
  O  O11251  1  0.10000000  0.03333333  0.50000000  1
  O  O11252  1  0.10000000  0.03333333  0.70000000  1
  O  O11253  1  0.10000000  0.03333333  0.90000000  1
  O  O11254  1  0.10000000  0.23333333  0.10000000  1
  O  O11255  1  0.10000000  0.23333333  0.30000000  1
  O  O11256  1  0.10000000  0.23333333  0.50000000  1
  O  O11257  1  0.10000000  0.23333333  0.70000000  1
  O  O11258  1  0.10000000  0.23333333  0.90000000  1
  O  O11259  1  0.10000000  0.43333333  0.10000000  1
  O  O11260  1  0.10000000  0.43333333  0.30000000  1
  O  O11261  1  0.10000000  0.43333333  0.50000000  1
  O  O11262  1  0.10000000  0.43333333  0.70000000  1
  O  O11263  1  0.10000000  0.43333333  0.90000000  1
  O  O11264  1  0.10000000  0.63333333  0.10000000  1
  O  O11265  1  0.10000000  0.63333333  0.30000000  1
  O  O11266  1  0.10000000  0.63333333  0.50000000  1
  O  O11267  1  0.10000000  0.63333333  0.70000000  1
  O  O11268  1  0.10000000  0.63333333  0.90000000  1
  O  O11269  1  0.10000000  0.83333333  0.10000000  1
  O  O11270  1  0.10000000  0.83333333  0.30000000  1
  O  O11271  1  0.10000000  0.83333333  0.50000000  1
  O  O11272  1  0.10000000  0.83333333  0.70000000  1
  O  O11273  1  0.10000000  0.83333333  0.90000000  1
  O  O11274  1  0.30000000  0.03333333  0.10000000  1
  O  O11275  1  0.30000000  0.03333333  0.30000000  1
  O  O11276  1  0.30000000  0.03333333  0.50000000  1
  O  O11277  1  0.30000000  0.03333333  0.70000000  1
  O  O11278  1  0.30000000  0.03333333  0.90000000  1
  O  O11279  1  0.30000000  0.23333333  0.10000000  1
  O  O11280  1  0.30000000  0.23333333  0.30000000  1
  O  O11281  1  0.30000000  0.23333333  0.50000000  1
  O  O11282  1  0.30000000  0.23333333  0.70000000  1
  O  O11283  1  0.30000000  0.23333333  0.90000000  1
  O  O11284  1  0.30000000  0.43333333  0.10000000  1
  O  O11285  1  0.30000000  0.43333333  0.30000000  1
  O  O11286  1  0.30000000  0.43333333  0.50000000  1
  O  O11287  1  0.30000000  0.43333333  0.70000000  1
  O  O11288  1  0.30000000  0.43333333  0.90000000  1
  O  O11289  1  0.30000000  0.63333333  0.10000000  1
  O  O11290  1  0.30000000  0.63333333  0.30000000  1
  O  O11291  1  0.30000000  0.63333333  0.50000000  1
  O  O11292  1  0.30000000  0.63333333  0.70000000  1
  O  O11293  1  0.30000000  0.63333333  0.90000000  1
  O  O11294  1  0.30000000  0.83333333  0.10000000  1
  O  O11295  1  0.30000000  0.83333333  0.30000000  1
  O  O11296  1  0.30000000  0.83333333  0.50000000  1
  O  O11297  1  0.30000000  0.83333333  0.70000000  1
  O  O11298  1  0.30000000  0.83333333  0.90000000  1
  O  O11299  1  0.50000000  0.03333333  0.10000000  1
  O  O11300  1  0.50000000  0.03333333  0.30000000  1
  O  O11301  1  0.50000000  0.03333333  0.50000000  1
  O  O11302  1  0.50000000  0.03333333  0.70000000  1
  O  O11303  1  0.50000000  0.03333333  0.90000000  1
  O  O11304  1  0.50000000  0.23333333  0.10000000  1
  O  O11305  1  0.50000000  0.23333333  0.30000000  1
  O  O11306  1  0.50000000  0.23333333  0.50000000  1
  O  O11307  1  0.50000000  0.23333333  0.70000000  1
  O  O11308  1  0.50000000  0.23333333  0.90000000  1
  O  O11309  1  0.50000000  0.43333333  0.10000000  1
  O  O11310  1  0.50000000  0.43333333  0.30000000  1
  O  O11311  1  0.50000000  0.43333333  0.50000000  1
  O  O11312  1  0.50000000  0.43333333  0.70000000  1
  O  O11313  1  0.50000000  0.43333333  0.90000000  1
  O  O11314  1  0.50000000  0.63333333  0.10000000  1
  O  O11315  1  0.50000000  0.63333333  0.30000000  1
  O  O11316  1  0.50000000  0.63333333  0.50000000  1
  O  O11317  1  0.50000000  0.63333333  0.70000000  1
  O  O11318  1  0.50000000  0.63333333  0.90000000  1
  O  O11319  1  0.50000000  0.83333333  0.10000000  1
  O  O11320  1  0.50000000  0.83333333  0.30000000  1
  O  O11321  1  0.50000000  0.83333333  0.50000000  1
  O  O11322  1  0.50000000  0.83333333  0.70000000  1
  O  O11323  1  0.50000000  0.83333333  0.90000000  1
  O  O11324  1  0.70000000  0.03333333  0.10000000  1
  O  O11325  1  0.70000000  0.03333333  0.30000000  1
  O  O11326  1  0.70000000  0.03333333  0.50000000  1
  O  O11327  1  0.70000000  0.03333333  0.70000000  1
  O  O11328  1  0.70000000  0.03333333  0.90000000  1
  O  O11329  1  0.70000000  0.23333333  0.10000000  1
  O  O11330  1  0.70000000  0.23333333  0.30000000  1
  O  O11331  1  0.70000000  0.23333333  0.50000000  1
  O  O11332  1  0.70000000  0.23333333  0.70000000  1
  O  O11333  1  0.70000000  0.23333333  0.90000000  1
  O  O11334  1  0.70000000  0.43333333  0.10000000  1
  O  O11335  1  0.70000000  0.43333333  0.30000000  1
  O  O11336  1  0.70000000  0.43333333  0.50000000  1
  O  O11337  1  0.70000000  0.43333333  0.70000000  1
  O  O11338  1  0.70000000  0.43333333  0.90000000  1
  O  O11339  1  0.70000000  0.63333333  0.10000000  1
  O  O11340  1  0.70000000  0.63333333  0.30000000  1
  O  O11341  1  0.70000000  0.63333333  0.50000000  1
  O  O11342  1  0.70000000  0.63333333  0.70000000  1
  O  O11343  1  0.70000000  0.63333333  0.90000000  1
  O  O11344  1  0.70000000  0.83333333  0.10000000  1
  O  O11345  1  0.70000000  0.83333333  0.30000000  1
  O  O11346  1  0.70000000  0.83333333  0.50000000  1
  O  O11347  1  0.70000000  0.83333333  0.70000000  1
  O  O11348  1  0.70000000  0.83333333  0.90000000  1
  O  O11349  1  0.90000000  0.03333333  0.10000000  1
  O  O11350  1  0.90000000  0.03333333  0.30000000  1
  O  O11351  1  0.90000000  0.03333333  0.50000000  1
  O  O11352  1  0.90000000  0.03333333  0.70000000  1
  O  O11353  1  0.90000000  0.03333333  0.90000000  1
  O  O11354  1  0.90000000  0.23333333  0.10000000  1
  O  O11355  1  0.90000000  0.23333333  0.30000000  1
  O  O11356  1  0.90000000  0.23333333  0.50000000  1
  O  O11357  1  0.90000000  0.23333333  0.70000000  1
  O  O11358  1  0.90000000  0.23333333  0.90000000  1
  O  O11359  1  0.90000000  0.43333333  0.10000000  1
  O  O11360  1  0.90000000  0.43333333  0.30000000  1
  O  O11361  1  0.90000000  0.43333333  0.50000000  1
  O  O11362  1  0.90000000  0.43333333  0.70000000  1
  O  O11363  1  0.90000000  0.43333333  0.90000000  1
  O  O11364  1  0.90000000  0.63333333  0.10000000  1
  O  O11365  1  0.90000000  0.63333333  0.30000000  1
  O  O11366  1  0.90000000  0.63333333  0.50000000  1
  O  O11367  1  0.90000000  0.63333333  0.70000000  1
  O  O11368  1  0.90000000  0.63333333  0.90000000  1
  O  O11369  1  0.90000000  0.83333333  0.10000000  1
  O  O11370  1  0.90000000  0.83333333  0.30000000  1
  O  O11371  1  0.90000000  0.83333333  0.50000000  1
  O  O11372  1  0.90000000  0.83333333  0.70000000  1
  O  O11373  1  0.90000000  0.83333333  0.90000000  1
  O  O11374  1  0.10000000  0.03333333  0.16666667  1
  O  O11375  1  0.10000000  0.03333333  0.36666667  1
  O  O11376  1  0.10000000  0.03333333  0.56666667  1
  O  O11377  1  0.10000000  0.03333333  0.76666667  1
  O  O11378  1  0.10000000  0.03333333  0.96666667  1
  O  O11379  1  0.10000000  0.23333333  0.16666667  1
  O  O11380  1  0.10000000  0.23333333  0.36666667  1
  O  O11381  1  0.10000000  0.23333333  0.56666667  1
  O  O11382  1  0.10000000  0.23333333  0.76666667  1
  O  O11383  1  0.10000000  0.23333333  0.96666667  1
  O  O11384  1  0.10000000  0.43333333  0.16666667  1
  O  O11385  1  0.10000000  0.43333333  0.36666667  1
  O  O11386  1  0.10000000  0.43333333  0.56666667  1
  O  O11387  1  0.10000000  0.43333333  0.76666667  1
  O  O11388  1  0.10000000  0.43333333  0.96666667  1
  O  O11389  1  0.10000000  0.63333333  0.16666667  1
  O  O11390  1  0.10000000  0.63333333  0.36666667  1
  O  O11391  1  0.10000000  0.63333333  0.56666667  1
  O  O11392  1  0.10000000  0.63333333  0.76666667  1
  O  O11393  1  0.10000000  0.63333333  0.96666667  1
  O  O11394  1  0.10000000  0.83333333  0.16666667  1
  O  O11395  1  0.10000000  0.83333333  0.36666667  1
  O  O11396  1  0.10000000  0.83333333  0.56666667  1
  O  O11397  1  0.10000000  0.83333333  0.76666667  1
  O  O11398  1  0.10000000  0.83333333  0.96666667  1
  O  O11399  1  0.30000000  0.03333333  0.16666667  1
  O  O11400  1  0.30000000  0.03333333  0.36666667  1
  O  O11401  1  0.30000000  0.03333333  0.56666667  1
  O  O11402  1  0.30000000  0.03333333  0.76666667  1
  O  O11403  1  0.30000000  0.03333333  0.96666667  1
  O  O11404  1  0.30000000  0.23333333  0.16666667  1
  O  O11405  1  0.30000000  0.23333333  0.36666667  1
  O  O11406  1  0.30000000  0.23333333  0.56666667  1
  O  O11407  1  0.30000000  0.23333333  0.76666667  1
  O  O11408  1  0.30000000  0.23333333  0.96666667  1
  O  O11409  1  0.30000000  0.43333333  0.16666667  1
  O  O11410  1  0.30000000  0.43333333  0.36666667  1
  O  O11411  1  0.30000000  0.43333333  0.56666667  1
  O  O11412  1  0.30000000  0.43333333  0.76666667  1
  O  O11413  1  0.30000000  0.43333333  0.96666667  1
  O  O11414  1  0.30000000  0.63333333  0.16666667  1
  O  O11415  1  0.30000000  0.63333333  0.36666667  1
  O  O11416  1  0.30000000  0.63333333  0.56666667  1
  O  O11417  1  0.30000000  0.63333333  0.76666667  1
  O  O11418  1  0.30000000  0.63333333  0.96666667  1
  O  O11419  1  0.30000000  0.83333333  0.16666667  1
  O  O11420  1  0.30000000  0.83333333  0.36666667  1
  O  O11421  1  0.30000000  0.83333333  0.56666667  1
  O  O11422  1  0.30000000  0.83333333  0.76666667  1
  O  O11423  1  0.30000000  0.83333333  0.96666667  1
  O  O11424  1  0.50000000  0.03333333  0.16666667  1
  O  O11425  1  0.50000000  0.03333333  0.36666667  1
  O  O11426  1  0.50000000  0.03333333  0.56666667  1
  O  O11427  1  0.50000000  0.03333333  0.76666667  1
  O  O11428  1  0.50000000  0.03333333  0.96666667  1
  O  O11429  1  0.50000000  0.23333333  0.16666667  1
  O  O11430  1  0.50000000  0.23333333  0.36666667  1
  O  O11431  1  0.50000000  0.23333333  0.56666667  1
  O  O11432  1  0.50000000  0.23333333  0.76666667  1
  O  O11433  1  0.50000000  0.23333333  0.96666667  1
  O  O11434  1  0.50000000  0.43333333  0.16666667  1
  O  O11435  1  0.50000000  0.43333333  0.36666667  1
  O  O11436  1  0.50000000  0.43333333  0.56666667  1
  O  O11437  1  0.50000000  0.43333333  0.76666667  1
  O  O11438  1  0.50000000  0.43333333  0.96666667  1
  O  O11439  1  0.50000000  0.63333333  0.16666667  1
  O  O11440  1  0.50000000  0.63333333  0.36666667  1
  O  O11441  1  0.50000000  0.63333333  0.56666667  1
  O  O11442  1  0.50000000  0.63333333  0.76666667  1
  O  O11443  1  0.50000000  0.63333333  0.96666667  1
  O  O11444  1  0.50000000  0.83333333  0.16666667  1
  O  O11445  1  0.50000000  0.83333333  0.36666667  1
  O  O11446  1  0.50000000  0.83333333  0.56666667  1
  O  O11447  1  0.50000000  0.83333333  0.76666667  1
  O  O11448  1  0.50000000  0.83333333  0.96666667  1
  O  O11449  1  0.70000000  0.03333333  0.16666667  1
  O  O11450  1  0.70000000  0.03333333  0.36666667  1
  O  O11451  1  0.70000000  0.03333333  0.56666667  1
  O  O11452  1  0.70000000  0.03333333  0.76666667  1
  O  O11453  1  0.70000000  0.03333333  0.96666667  1
  O  O11454  1  0.70000000  0.23333333  0.16666667  1
  O  O11455  1  0.70000000  0.23333333  0.36666667  1
  O  O11456  1  0.70000000  0.23333333  0.56666667  1
  O  O11457  1  0.70000000  0.23333333  0.76666667  1
  O  O11458  1  0.70000000  0.23333333  0.96666667  1
  O  O11459  1  0.70000000  0.43333333  0.16666667  1
  O  O11460  1  0.70000000  0.43333333  0.36666667  1
  O  O11461  1  0.70000000  0.43333333  0.56666667  1
  O  O11462  1  0.70000000  0.43333333  0.76666667  1
  O  O11463  1  0.70000000  0.43333333  0.96666667  1
  O  O11464  1  0.70000000  0.63333333  0.16666667  1
  O  O11465  1  0.70000000  0.63333333  0.36666667  1
  O  O11466  1  0.70000000  0.63333333  0.56666667  1
  O  O11467  1  0.70000000  0.63333333  0.76666667  1
  O  O11468  1  0.70000000  0.63333333  0.96666667  1
  O  O11469  1  0.70000000  0.83333333  0.16666667  1
  O  O11470  1  0.70000000  0.83333333  0.36666667  1
  O  O11471  1  0.70000000  0.83333333  0.56666667  1
  O  O11472  1  0.70000000  0.83333333  0.76666667  1
  O  O11473  1  0.70000000  0.83333333  0.96666667  1
  O  O11474  1  0.90000000  0.03333333  0.16666667  1
  O  O11475  1  0.90000000  0.03333333  0.36666667  1
  O  O11476  1  0.90000000  0.03333333  0.56666667  1
  O  O11477  1  0.90000000  0.03333333  0.76666667  1
  O  O11478  1  0.90000000  0.03333333  0.96666667  1
  O  O11479  1  0.90000000  0.23333333  0.16666667  1
  O  O11480  1  0.90000000  0.23333333  0.36666667  1
  O  O11481  1  0.90000000  0.23333333  0.56666667  1
  O  O11482  1  0.90000000  0.23333333  0.76666667  1
  O  O11483  1  0.90000000  0.23333333  0.96666667  1
  O  O11484  1  0.90000000  0.43333333  0.16666667  1
  O  O11485  1  0.90000000  0.43333333  0.36666667  1
  O  O11486  1  0.90000000  0.43333333  0.56666667  1
  O  O11487  1  0.90000000  0.43333333  0.76666667  1
  O  O11488  1  0.90000000  0.43333333  0.96666667  1
  O  O11489  1  0.90000000  0.63333333  0.16666667  1
  O  O11490  1  0.90000000  0.63333333  0.36666667  1
  O  O11491  1  0.90000000  0.63333333  0.56666667  1
  O  O11492  1  0.90000000  0.63333333  0.76666667  1
  O  O11493  1  0.90000000  0.63333333  0.96666667  1
  O  O11494  1  0.90000000  0.83333333  0.16666667  1
  O  O11495  1  0.90000000  0.83333333  0.36666667  1
  O  O11496  1  0.90000000  0.83333333  0.56666667  1
  O  O11497  1  0.90000000  0.83333333  0.76666667  1
  O  O11498  1  0.90000000  0.83333333  0.96666667  1
  O  O11499  1  0.10000000  0.10000000  0.03333333  1
  O  O11500  1  0.10000000  0.10000000  0.23333333  1
  O  O11501  1  0.10000000  0.10000000  0.43333333  1
  O  O11502  1  0.10000000  0.10000000  0.63333333  1
  O  O11503  1  0.10000000  0.10000000  0.83333333  1
  O  O11504  1  0.10000000  0.30000000  0.03333333  1
  O  O11505  1  0.10000000  0.30000000  0.23333333  1
  O  O11506  1  0.10000000  0.30000000  0.43333333  1
  O  O11507  1  0.10000000  0.30000000  0.63333333  1
  O  O11508  1  0.10000000  0.30000000  0.83333333  1
  O  O11509  1  0.10000000  0.50000000  0.03333333  1
  O  O11510  1  0.10000000  0.50000000  0.23333333  1
  O  O11511  1  0.10000000  0.50000000  0.43333333  1
  O  O11512  1  0.10000000  0.50000000  0.63333333  1
  O  O11513  1  0.10000000  0.50000000  0.83333333  1
  O  O11514  1  0.10000000  0.70000000  0.03333333  1
  O  O11515  1  0.10000000  0.70000000  0.23333333  1
  O  O11516  1  0.10000000  0.70000000  0.43333333  1
  O  O11517  1  0.10000000  0.70000000  0.63333333  1
  O  O11518  1  0.10000000  0.70000000  0.83333333  1
  O  O11519  1  0.10000000  0.90000000  0.03333333  1
  O  O11520  1  0.10000000  0.90000000  0.23333333  1
  O  O11521  1  0.10000000  0.90000000  0.43333333  1
  O  O11522  1  0.10000000  0.90000000  0.63333333  1
  O  O11523  1  0.10000000  0.90000000  0.83333333  1
  O  O11524  1  0.30000000  0.10000000  0.03333333  1
  O  O11525  1  0.30000000  0.10000000  0.23333333  1
  O  O11526  1  0.30000000  0.10000000  0.43333333  1
  O  O11527  1  0.30000000  0.10000000  0.63333333  1
  O  O11528  1  0.30000000  0.10000000  0.83333333  1
  O  O11529  1  0.30000000  0.30000000  0.03333333  1
  O  O11530  1  0.30000000  0.30000000  0.23333333  1
  O  O11531  1  0.30000000  0.30000000  0.43333333  1
  O  O11532  1  0.30000000  0.30000000  0.63333333  1
  O  O11533  1  0.30000000  0.30000000  0.83333333  1
  O  O11534  1  0.30000000  0.50000000  0.03333333  1
  O  O11535  1  0.30000000  0.50000000  0.23333333  1
  O  O11536  1  0.30000000  0.50000000  0.43333333  1
  O  O11537  1  0.30000000  0.50000000  0.63333333  1
  O  O11538  1  0.30000000  0.50000000  0.83333333  1
  O  O11539  1  0.30000000  0.70000000  0.03333333  1
  O  O11540  1  0.30000000  0.70000000  0.23333333  1
  O  O11541  1  0.30000000  0.70000000  0.43333333  1
  O  O11542  1  0.30000000  0.70000000  0.63333333  1
  O  O11543  1  0.30000000  0.70000000  0.83333333  1
  O  O11544  1  0.30000000  0.90000000  0.03333333  1
  O  O11545  1  0.30000000  0.90000000  0.23333333  1
  O  O11546  1  0.30000000  0.90000000  0.43333333  1
  O  O11547  1  0.30000000  0.90000000  0.63333333  1
  O  O11548  1  0.30000000  0.90000000  0.83333333  1
  O  O11549  1  0.50000000  0.10000000  0.03333333  1
  O  O11550  1  0.50000000  0.10000000  0.23333333  1
  O  O11551  1  0.50000000  0.10000000  0.43333333  1
  O  O11552  1  0.50000000  0.10000000  0.63333333  1
  O  O11553  1  0.50000000  0.10000000  0.83333333  1
  O  O11554  1  0.50000000  0.30000000  0.03333333  1
  O  O11555  1  0.50000000  0.30000000  0.23333333  1
  O  O11556  1  0.50000000  0.30000000  0.43333333  1
  O  O11557  1  0.50000000  0.30000000  0.63333333  1
  O  O11558  1  0.50000000  0.30000000  0.83333333  1
  O  O11559  1  0.50000000  0.50000000  0.03333333  1
  O  O11560  1  0.50000000  0.50000000  0.23333333  1
  O  O11561  1  0.50000000  0.50000000  0.43333333  1
  O  O11562  1  0.50000000  0.50000000  0.63333333  1
  O  O11563  1  0.50000000  0.50000000  0.83333333  1
  O  O11564  1  0.50000000  0.70000000  0.03333333  1
  O  O11565  1  0.50000000  0.70000000  0.23333333  1
  O  O11566  1  0.50000000  0.70000000  0.43333333  1
  O  O11567  1  0.50000000  0.70000000  0.63333333  1
  O  O11568  1  0.50000000  0.70000000  0.83333333  1
  O  O11569  1  0.50000000  0.90000000  0.03333333  1
  O  O11570  1  0.50000000  0.90000000  0.23333333  1
  O  O11571  1  0.50000000  0.90000000  0.43333333  1
  O  O11572  1  0.50000000  0.90000000  0.63333333  1
  O  O11573  1  0.50000000  0.90000000  0.83333333  1
  O  O11574  1  0.70000000  0.10000000  0.03333333  1
  O  O11575  1  0.70000000  0.10000000  0.23333333  1
  O  O11576  1  0.70000000  0.10000000  0.43333333  1
  O  O11577  1  0.70000000  0.10000000  0.63333333  1
  O  O11578  1  0.70000000  0.10000000  0.83333333  1
  O  O11579  1  0.70000000  0.30000000  0.03333333  1
  O  O11580  1  0.70000000  0.30000000  0.23333333  1
  O  O11581  1  0.70000000  0.30000000  0.43333333  1
  O  O11582  1  0.70000000  0.30000000  0.63333333  1
  O  O11583  1  0.70000000  0.30000000  0.83333333  1
  O  O11584  1  0.70000000  0.50000000  0.03333333  1
  O  O11585  1  0.70000000  0.50000000  0.23333333  1
  O  O11586  1  0.70000000  0.50000000  0.43333333  1
  O  O11587  1  0.70000000  0.50000000  0.63333333  1
  O  O11588  1  0.70000000  0.50000000  0.83333333  1
  O  O11589  1  0.70000000  0.70000000  0.03333333  1
  O  O11590  1  0.70000000  0.70000000  0.23333333  1
  O  O11591  1  0.70000000  0.70000000  0.43333333  1
  O  O11592  1  0.70000000  0.70000000  0.63333333  1
  O  O11593  1  0.70000000  0.70000000  0.83333333  1
  O  O11594  1  0.70000000  0.90000000  0.03333333  1
  O  O11595  1  0.70000000  0.90000000  0.23333333  1
  O  O11596  1  0.70000000  0.90000000  0.43333333  1
  O  O11597  1  0.70000000  0.90000000  0.63333333  1
  O  O11598  1  0.70000000  0.90000000  0.83333333  1
  O  O11599  1  0.90000000  0.10000000  0.03333333  1
  O  O11600  1  0.90000000  0.10000000  0.23333333  1
  O  O11601  1  0.90000000  0.10000000  0.43333333  1
  O  O11602  1  0.90000000  0.10000000  0.63333333  1
  O  O11603  1  0.90000000  0.10000000  0.83333333  1
  O  O11604  1  0.90000000  0.30000000  0.03333333  1
  O  O11605  1  0.90000000  0.30000000  0.23333333  1
  O  O11606  1  0.90000000  0.30000000  0.43333333  1
  O  O11607  1  0.90000000  0.30000000  0.63333333  1
  O  O11608  1  0.90000000  0.30000000  0.83333333  1
  O  O11609  1  0.90000000  0.50000000  0.03333333  1
  O  O11610  1  0.90000000  0.50000000  0.23333333  1
  O  O11611  1  0.90000000  0.50000000  0.43333333  1
  O  O11612  1  0.90000000  0.50000000  0.63333333  1
  O  O11613  1  0.90000000  0.50000000  0.83333333  1
  O  O11614  1  0.90000000  0.70000000  0.03333333  1
  O  O11615  1  0.90000000  0.70000000  0.23333333  1
  O  O11616  1  0.90000000  0.70000000  0.43333333  1
  O  O11617  1  0.90000000  0.70000000  0.63333333  1
  O  O11618  1  0.90000000  0.70000000  0.83333333  1
  O  O11619  1  0.90000000  0.90000000  0.03333333  1
  O  O11620  1  0.90000000  0.90000000  0.23333333  1
  O  O11621  1  0.90000000  0.90000000  0.43333333  1
  O  O11622  1  0.90000000  0.90000000  0.63333333  1
  O  O11623  1  0.90000000  0.90000000  0.83333333  1
  O  O11624  1  0.10000000  0.10000000  0.10000000  1
  O  O11625  1  0.10000000  0.10000000  0.30000000  1
  O  O11626  1  0.10000000  0.10000000  0.50000000  1
  O  O11627  1  0.10000000  0.10000000  0.70000000  1
  O  O11628  1  0.10000000  0.10000000  0.90000000  1
  O  O11629  1  0.10000000  0.30000000  0.10000000  1
  O  O11630  1  0.10000000  0.30000000  0.30000000  1
  O  O11631  1  0.10000000  0.30000000  0.50000000  1
  O  O11632  1  0.10000000  0.30000000  0.70000000  1
  O  O11633  1  0.10000000  0.30000000  0.90000000  1
  O  O11634  1  0.10000000  0.50000000  0.10000000  1
  O  O11635  1  0.10000000  0.50000000  0.30000000  1
  O  O11636  1  0.10000000  0.50000000  0.50000000  1
  O  O11637  1  0.10000000  0.50000000  0.70000000  1
  O  O11638  1  0.10000000  0.50000000  0.90000000  1
  O  O11639  1  0.10000000  0.70000000  0.10000000  1
  O  O11640  1  0.10000000  0.70000000  0.30000000  1
  O  O11641  1  0.10000000  0.70000000  0.50000000  1
  O  O11642  1  0.10000000  0.70000000  0.70000000  1
  O  O11643  1  0.10000000  0.70000000  0.90000000  1
  O  O11644  1  0.10000000  0.90000000  0.10000000  1
  O  O11645  1  0.10000000  0.90000000  0.30000000  1
  O  O11646  1  0.10000000  0.90000000  0.50000000  1
  O  O11647  1  0.10000000  0.90000000  0.70000000  1
  O  O11648  1  0.10000000  0.90000000  0.90000000  1
  O  O11649  1  0.30000000  0.10000000  0.10000000  1
  O  O11650  1  0.30000000  0.10000000  0.30000000  1
  O  O11651  1  0.30000000  0.10000000  0.50000000  1
  O  O11652  1  0.30000000  0.10000000  0.70000000  1
  O  O11653  1  0.30000000  0.10000000  0.90000000  1
  O  O11654  1  0.30000000  0.30000000  0.10000000  1
  O  O11655  1  0.30000000  0.30000000  0.30000000  1
  O  O11656  1  0.30000000  0.30000000  0.50000000  1
  O  O11657  1  0.30000000  0.30000000  0.70000000  1
  O  O11658  1  0.30000000  0.30000000  0.90000000  1
  O  O11659  1  0.30000000  0.50000000  0.10000000  1
  O  O11660  1  0.30000000  0.50000000  0.30000000  1
  O  O11661  1  0.30000000  0.50000000  0.50000000  1
  O  O11662  1  0.30000000  0.50000000  0.70000000  1
  O  O11663  1  0.30000000  0.50000000  0.90000000  1
  O  O11664  1  0.30000000  0.70000000  0.10000000  1
  O  O11665  1  0.30000000  0.70000000  0.30000000  1
  O  O11666  1  0.30000000  0.70000000  0.50000000  1
  O  O11667  1  0.30000000  0.70000000  0.70000000  1
  O  O11668  1  0.30000000  0.70000000  0.90000000  1
  O  O11669  1  0.30000000  0.90000000  0.10000000  1
  O  O11670  1  0.30000000  0.90000000  0.30000000  1
  O  O11671  1  0.30000000  0.90000000  0.50000000  1
  O  O11672  1  0.30000000  0.90000000  0.70000000  1
  O  O11673  1  0.30000000  0.90000000  0.90000000  1
  O  O11674  1  0.50000000  0.10000000  0.10000000  1
  O  O11675  1  0.50000000  0.10000000  0.30000000  1
  O  O11676  1  0.50000000  0.10000000  0.50000000  1
  O  O11677  1  0.50000000  0.10000000  0.70000000  1
  O  O11678  1  0.50000000  0.10000000  0.90000000  1
  O  O11679  1  0.50000000  0.30000000  0.10000000  1
  O  O11680  1  0.50000000  0.30000000  0.30000000  1
  O  O11681  1  0.50000000  0.30000000  0.50000000  1
  O  O11682  1  0.50000000  0.30000000  0.70000000  1
  O  O11683  1  0.50000000  0.30000000  0.90000000  1
  O  O11684  1  0.50000000  0.50000000  0.10000000  1
  O  O11685  1  0.50000000  0.50000000  0.30000000  1
  O  O11686  1  0.50000000  0.50000000  0.50000000  1
  O  O11687  1  0.50000000  0.50000000  0.70000000  1
  O  O11688  1  0.50000000  0.50000000  0.90000000  1
  O  O11689  1  0.50000000  0.70000000  0.10000000  1
  O  O11690  1  0.50000000  0.70000000  0.30000000  1
  O  O11691  1  0.50000000  0.70000000  0.50000000  1
  O  O11692  1  0.50000000  0.70000000  0.70000000  1
  O  O11693  1  0.50000000  0.70000000  0.90000000  1
  O  O11694  1  0.50000000  0.90000000  0.10000000  1
  O  O11695  1  0.50000000  0.90000000  0.30000000  1
  O  O11696  1  0.50000000  0.90000000  0.50000000  1
  O  O11697  1  0.50000000  0.90000000  0.70000000  1
  O  O11698  1  0.50000000  0.90000000  0.90000000  1
  O  O11699  1  0.70000000  0.10000000  0.10000000  1
  O  O11700  1  0.70000000  0.10000000  0.30000000  1
  O  O11701  1  0.70000000  0.10000000  0.50000000  1
  O  O11702  1  0.70000000  0.10000000  0.70000000  1
  O  O11703  1  0.70000000  0.10000000  0.90000000  1
  O  O11704  1  0.70000000  0.30000000  0.10000000  1
  O  O11705  1  0.70000000  0.30000000  0.30000000  1
  O  O11706  1  0.70000000  0.30000000  0.50000000  1
  O  O11707  1  0.70000000  0.30000000  0.70000000  1
  O  O11708  1  0.70000000  0.30000000  0.90000000  1
  O  O11709  1  0.70000000  0.50000000  0.10000000  1
  O  O11710  1  0.70000000  0.50000000  0.30000000  1
  O  O11711  1  0.70000000  0.50000000  0.50000000  1
  O  O11712  1  0.70000000  0.50000000  0.70000000  1
  O  O11713  1  0.70000000  0.50000000  0.90000000  1
  O  O11714  1  0.70000000  0.70000000  0.10000000  1
  O  O11715  1  0.70000000  0.70000000  0.30000000  1
  O  O11716  1  0.70000000  0.70000000  0.50000000  1
  O  O11717  1  0.70000000  0.70000000  0.70000000  1
  O  O11718  1  0.70000000  0.70000000  0.90000000  1
  O  O11719  1  0.70000000  0.90000000  0.10000000  1
  O  O11720  1  0.70000000  0.90000000  0.30000000  1
  O  O11721  1  0.70000000  0.90000000  0.50000000  1
  O  O11722  1  0.70000000  0.90000000  0.70000000  1
  O  O11723  1  0.70000000  0.90000000  0.90000000  1
  O  O11724  1  0.90000000  0.10000000  0.10000000  1
  O  O11725  1  0.90000000  0.10000000  0.30000000  1
  O  O11726  1  0.90000000  0.10000000  0.50000000  1
  O  O11727  1  0.90000000  0.10000000  0.70000000  1
  O  O11728  1  0.90000000  0.10000000  0.90000000  1
  O  O11729  1  0.90000000  0.30000000  0.10000000  1
  O  O11730  1  0.90000000  0.30000000  0.30000000  1
  O  O11731  1  0.90000000  0.30000000  0.50000000  1
  O  O11732  1  0.90000000  0.30000000  0.70000000  1
  O  O11733  1  0.90000000  0.30000000  0.90000000  1
  O  O11734  1  0.90000000  0.50000000  0.10000000  1
  O  O11735  1  0.90000000  0.50000000  0.30000000  1
  O  O11736  1  0.90000000  0.50000000  0.50000000  1
  O  O11737  1  0.90000000  0.50000000  0.70000000  1
  O  O11738  1  0.90000000  0.50000000  0.90000000  1
  O  O11739  1  0.90000000  0.70000000  0.10000000  1
  O  O11740  1  0.90000000  0.70000000  0.30000000  1
  O  O11741  1  0.90000000  0.70000000  0.50000000  1
  O  O11742  1  0.90000000  0.70000000  0.70000000  1
  O  O11743  1  0.90000000  0.70000000  0.90000000  1
  O  O11744  1  0.90000000  0.90000000  0.10000000  1
  O  O11745  1  0.90000000  0.90000000  0.30000000  1
  O  O11746  1  0.90000000  0.90000000  0.50000000  1
  O  O11747  1  0.90000000  0.90000000  0.70000000  1
  O  O11748  1  0.90000000  0.90000000  0.90000000  1
  O  O11749  1  0.10000000  0.10000000  0.16666667  1
  O  O11750  1  0.10000000  0.10000000  0.36666667  1
  O  O11751  1  0.10000000  0.10000000  0.56666667  1
  O  O11752  1  0.10000000  0.10000000  0.76666667  1
  O  O11753  1  0.10000000  0.10000000  0.96666667  1
  O  O11754  1  0.10000000  0.30000000  0.16666667  1
  O  O11755  1  0.10000000  0.30000000  0.36666667  1
  O  O11756  1  0.10000000  0.30000000  0.56666667  1
  O  O11757  1  0.10000000  0.30000000  0.76666667  1
  O  O11758  1  0.10000000  0.30000000  0.96666667  1
  O  O11759  1  0.10000000  0.50000000  0.16666667  1
  O  O11760  1  0.10000000  0.50000000  0.36666667  1
  O  O11761  1  0.10000000  0.50000000  0.56666667  1
  O  O11762  1  0.10000000  0.50000000  0.76666667  1
  O  O11763  1  0.10000000  0.50000000  0.96666667  1
  O  O11764  1  0.10000000  0.70000000  0.16666667  1
  O  O11765  1  0.10000000  0.70000000  0.36666667  1
  O  O11766  1  0.10000000  0.70000000  0.56666667  1
  O  O11767  1  0.10000000  0.70000000  0.76666667  1
  O  O11768  1  0.10000000  0.70000000  0.96666667  1
  O  O11769  1  0.10000000  0.90000000  0.16666667  1
  O  O11770  1  0.10000000  0.90000000  0.36666667  1
  O  O11771  1  0.10000000  0.90000000  0.56666667  1
  O  O11772  1  0.10000000  0.90000000  0.76666667  1
  O  O11773  1  0.10000000  0.90000000  0.96666667  1
  O  O11774  1  0.30000000  0.10000000  0.16666667  1
  O  O11775  1  0.30000000  0.10000000  0.36666667  1
  O  O11776  1  0.30000000  0.10000000  0.56666667  1
  O  O11777  1  0.30000000  0.10000000  0.76666667  1
  O  O11778  1  0.30000000  0.10000000  0.96666667  1
  O  O11779  1  0.30000000  0.30000000  0.16666667  1
  O  O11780  1  0.30000000  0.30000000  0.36666667  1
  O  O11781  1  0.30000000  0.30000000  0.56666667  1
  O  O11782  1  0.30000000  0.30000000  0.76666667  1
  O  O11783  1  0.30000000  0.30000000  0.96666667  1
  O  O11784  1  0.30000000  0.50000000  0.16666667  1
  O  O11785  1  0.30000000  0.50000000  0.36666667  1
  O  O11786  1  0.30000000  0.50000000  0.56666667  1
  O  O11787  1  0.30000000  0.50000000  0.76666667  1
  O  O11788  1  0.30000000  0.50000000  0.96666667  1
  O  O11789  1  0.30000000  0.70000000  0.16666667  1
  O  O11790  1  0.30000000  0.70000000  0.36666667  1
  O  O11791  1  0.30000000  0.70000000  0.56666667  1
  O  O11792  1  0.30000000  0.70000000  0.76666667  1
  O  O11793  1  0.30000000  0.70000000  0.96666667  1
  O  O11794  1  0.30000000  0.90000000  0.16666667  1
  O  O11795  1  0.30000000  0.90000000  0.36666667  1
  O  O11796  1  0.30000000  0.90000000  0.56666667  1
  O  O11797  1  0.30000000  0.90000000  0.76666667  1
  O  O11798  1  0.30000000  0.90000000  0.96666667  1
  O  O11799  1  0.50000000  0.10000000  0.16666667  1
  O  O11800  1  0.50000000  0.10000000  0.36666667  1
  O  O11801  1  0.50000000  0.10000000  0.56666667  1
  O  O11802  1  0.50000000  0.10000000  0.76666667  1
  O  O11803  1  0.50000000  0.10000000  0.96666667  1
  O  O11804  1  0.50000000  0.30000000  0.16666667  1
  O  O11805  1  0.50000000  0.30000000  0.36666667  1
  O  O11806  1  0.50000000  0.30000000  0.56666667  1
  O  O11807  1  0.50000000  0.30000000  0.76666667  1
  O  O11808  1  0.50000000  0.30000000  0.96666667  1
  O  O11809  1  0.50000000  0.50000000  0.16666667  1
  O  O11810  1  0.50000000  0.50000000  0.36666667  1
  O  O11811  1  0.50000000  0.50000000  0.56666667  1
  O  O11812  1  0.50000000  0.50000000  0.76666667  1
  O  O11813  1  0.50000000  0.50000000  0.96666667  1
  O  O11814  1  0.50000000  0.70000000  0.16666667  1
  O  O11815  1  0.50000000  0.70000000  0.36666667  1
  O  O11816  1  0.50000000  0.70000000  0.56666667  1
  O  O11817  1  0.50000000  0.70000000  0.76666667  1
  O  O11818  1  0.50000000  0.70000000  0.96666667  1
  O  O11819  1  0.50000000  0.90000000  0.16666667  1
  O  O11820  1  0.50000000  0.90000000  0.36666667  1
  O  O11821  1  0.50000000  0.90000000  0.56666667  1
  O  O11822  1  0.50000000  0.90000000  0.76666667  1
  O  O11823  1  0.50000000  0.90000000  0.96666667  1
  O  O11824  1  0.70000000  0.10000000  0.16666667  1
  O  O11825  1  0.70000000  0.10000000  0.36666667  1
  O  O11826  1  0.70000000  0.10000000  0.56666667  1
  O  O11827  1  0.70000000  0.10000000  0.76666667  1
  O  O11828  1  0.70000000  0.10000000  0.96666667  1
  O  O11829  1  0.70000000  0.30000000  0.16666667  1
  O  O11830  1  0.70000000  0.30000000  0.36666667  1
  O  O11831  1  0.70000000  0.30000000  0.56666667  1
  O  O11832  1  0.70000000  0.30000000  0.76666667  1
  O  O11833  1  0.70000000  0.30000000  0.96666667  1
  O  O11834  1  0.70000000  0.50000000  0.16666667  1
  O  O11835  1  0.70000000  0.50000000  0.36666667  1
  O  O11836  1  0.70000000  0.50000000  0.56666667  1
  O  O11837  1  0.70000000  0.50000000  0.76666667  1
  O  O11838  1  0.70000000  0.50000000  0.96666667  1
  O  O11839  1  0.70000000  0.70000000  0.16666667  1
  O  O11840  1  0.70000000  0.70000000  0.36666667  1
  O  O11841  1  0.70000000  0.70000000  0.56666667  1
  O  O11842  1  0.70000000  0.70000000  0.76666667  1
  O  O11843  1  0.70000000  0.70000000  0.96666667  1
  O  O11844  1  0.70000000  0.90000000  0.16666667  1
  O  O11845  1  0.70000000  0.90000000  0.36666667  1
  O  O11846  1  0.70000000  0.90000000  0.56666667  1
  O  O11847  1  0.70000000  0.90000000  0.76666667  1
  O  O11848  1  0.70000000  0.90000000  0.96666667  1
  O  O11849  1  0.90000000  0.10000000  0.16666667  1
  O  O11850  1  0.90000000  0.10000000  0.36666667  1
  O  O11851  1  0.90000000  0.10000000  0.56666667  1
  O  O11852  1  0.90000000  0.10000000  0.76666667  1
  O  O11853  1  0.90000000  0.10000000  0.96666667  1
  O  O11854  1  0.90000000  0.30000000  0.16666667  1
  O  O11855  1  0.90000000  0.30000000  0.36666667  1
  O  O11856  1  0.90000000  0.30000000  0.56666667  1
  O  O11857  1  0.90000000  0.30000000  0.76666667  1
  O  O11858  1  0.90000000  0.30000000  0.96666667  1
  O  O11859  1  0.90000000  0.50000000  0.16666667  1
  O  O11860  1  0.90000000  0.50000000  0.36666667  1
  O  O11861  1  0.90000000  0.50000000  0.56666667  1
  O  O11862  1  0.90000000  0.50000000  0.76666667  1
  O  O11863  1  0.90000000  0.50000000  0.96666667  1
  O  O11864  1  0.90000000  0.70000000  0.16666667  1
  O  O11865  1  0.90000000  0.70000000  0.36666667  1
  O  O11866  1  0.90000000  0.70000000  0.56666667  1
  O  O11867  1  0.90000000  0.70000000  0.76666667  1
  O  O11868  1  0.90000000  0.70000000  0.96666667  1
  O  O11869  1  0.90000000  0.90000000  0.16666667  1
  O  O11870  1  0.90000000  0.90000000  0.36666667  1
  O  O11871  1  0.90000000  0.90000000  0.56666667  1
  O  O11872  1  0.90000000  0.90000000  0.76666667  1
  O  O11873  1  0.90000000  0.90000000  0.96666667  1
  O  O11874  1  0.10000000  0.16666667  0.03333333  1
  O  O11875  1  0.10000000  0.16666667  0.23333333  1
  O  O11876  1  0.10000000  0.16666667  0.43333333  1
  O  O11877  1  0.10000000  0.16666667  0.63333333  1
  O  O11878  1  0.10000000  0.16666667  0.83333333  1
  O  O11879  1  0.10000000  0.36666667  0.03333333  1
  O  O11880  1  0.10000000  0.36666667  0.23333333  1
  O  O11881  1  0.10000000  0.36666667  0.43333333  1
  O  O11882  1  0.10000000  0.36666667  0.63333333  1
  O  O11883  1  0.10000000  0.36666667  0.83333333  1
  O  O11884  1  0.10000000  0.56666667  0.03333333  1
  O  O11885  1  0.10000000  0.56666667  0.23333333  1
  O  O11886  1  0.10000000  0.56666667  0.43333333  1
  O  O11887  1  0.10000000  0.56666667  0.63333333  1
  O  O11888  1  0.10000000  0.56666667  0.83333333  1
  O  O11889  1  0.10000000  0.76666667  0.03333333  1
  O  O11890  1  0.10000000  0.76666667  0.23333333  1
  O  O11891  1  0.10000000  0.76666667  0.43333333  1
  O  O11892  1  0.10000000  0.76666667  0.63333333  1
  O  O11893  1  0.10000000  0.76666667  0.83333333  1
  O  O11894  1  0.10000000  0.96666667  0.03333333  1
  O  O11895  1  0.10000000  0.96666667  0.23333333  1
  O  O11896  1  0.10000000  0.96666667  0.43333333  1
  O  O11897  1  0.10000000  0.96666667  0.63333333  1
  O  O11898  1  0.10000000  0.96666667  0.83333333  1
  O  O11899  1  0.30000000  0.16666667  0.03333333  1
  O  O11900  1  0.30000000  0.16666667  0.23333333  1
  O  O11901  1  0.30000000  0.16666667  0.43333333  1
  O  O11902  1  0.30000000  0.16666667  0.63333333  1
  O  O11903  1  0.30000000  0.16666667  0.83333333  1
  O  O11904  1  0.30000000  0.36666667  0.03333333  1
  O  O11905  1  0.30000000  0.36666667  0.23333333  1
  O  O11906  1  0.30000000  0.36666667  0.43333333  1
  O  O11907  1  0.30000000  0.36666667  0.63333333  1
  O  O11908  1  0.30000000  0.36666667  0.83333333  1
  O  O11909  1  0.30000000  0.56666667  0.03333333  1
  O  O11910  1  0.30000000  0.56666667  0.23333333  1
  O  O11911  1  0.30000000  0.56666667  0.43333333  1
  O  O11912  1  0.30000000  0.56666667  0.63333333  1
  O  O11913  1  0.30000000  0.56666667  0.83333333  1
  O  O11914  1  0.30000000  0.76666667  0.03333333  1
  O  O11915  1  0.30000000  0.76666667  0.23333333  1
  O  O11916  1  0.30000000  0.76666667  0.43333333  1
  O  O11917  1  0.30000000  0.76666667  0.63333333  1
  O  O11918  1  0.30000000  0.76666667  0.83333333  1
  O  O11919  1  0.30000000  0.96666667  0.03333333  1
  O  O11920  1  0.30000000  0.96666667  0.23333333  1
  O  O11921  1  0.30000000  0.96666667  0.43333333  1
  O  O11922  1  0.30000000  0.96666667  0.63333333  1
  O  O11923  1  0.30000000  0.96666667  0.83333333  1
  O  O11924  1  0.50000000  0.16666667  0.03333333  1
  O  O11925  1  0.50000000  0.16666667  0.23333333  1
  O  O11926  1  0.50000000  0.16666667  0.43333333  1
  O  O11927  1  0.50000000  0.16666667  0.63333333  1
  O  O11928  1  0.50000000  0.16666667  0.83333333  1
  O  O11929  1  0.50000000  0.36666667  0.03333333  1
  O  O11930  1  0.50000000  0.36666667  0.23333333  1
  O  O11931  1  0.50000000  0.36666667  0.43333333  1
  O  O11932  1  0.50000000  0.36666667  0.63333333  1
  O  O11933  1  0.50000000  0.36666667  0.83333333  1
  O  O11934  1  0.50000000  0.56666667  0.03333333  1
  O  O11935  1  0.50000000  0.56666667  0.23333333  1
  O  O11936  1  0.50000000  0.56666667  0.43333333  1
  O  O11937  1  0.50000000  0.56666667  0.63333333  1
  O  O11938  1  0.50000000  0.56666667  0.83333333  1
  O  O11939  1  0.50000000  0.76666667  0.03333333  1
  O  O11940  1  0.50000000  0.76666667  0.23333333  1
  O  O11941  1  0.50000000  0.76666667  0.43333333  1
  O  O11942  1  0.50000000  0.76666667  0.63333333  1
  O  O11943  1  0.50000000  0.76666667  0.83333333  1
  O  O11944  1  0.50000000  0.96666667  0.03333333  1
  O  O11945  1  0.50000000  0.96666667  0.23333333  1
  O  O11946  1  0.50000000  0.96666667  0.43333333  1
  O  O11947  1  0.50000000  0.96666667  0.63333333  1
  O  O11948  1  0.50000000  0.96666667  0.83333333  1
  O  O11949  1  0.70000000  0.16666667  0.03333333  1
  O  O11950  1  0.70000000  0.16666667  0.23333333  1
  O  O11951  1  0.70000000  0.16666667  0.43333333  1
  O  O11952  1  0.70000000  0.16666667  0.63333333  1
  O  O11953  1  0.70000000  0.16666667  0.83333333  1
  O  O11954  1  0.70000000  0.36666667  0.03333333  1
  O  O11955  1  0.70000000  0.36666667  0.23333333  1
  O  O11956  1  0.70000000  0.36666667  0.43333333  1
  O  O11957  1  0.70000000  0.36666667  0.63333333  1
  O  O11958  1  0.70000000  0.36666667  0.83333333  1
  O  O11959  1  0.70000000  0.56666667  0.03333333  1
  O  O11960  1  0.70000000  0.56666667  0.23333333  1
  O  O11961  1  0.70000000  0.56666667  0.43333333  1
  O  O11962  1  0.70000000  0.56666667  0.63333333  1
  O  O11963  1  0.70000000  0.56666667  0.83333333  1
  O  O11964  1  0.70000000  0.76666667  0.03333333  1
  O  O11965  1  0.70000000  0.76666667  0.23333333  1
  O  O11966  1  0.70000000  0.76666667  0.43333333  1
  O  O11967  1  0.70000000  0.76666667  0.63333333  1
  O  O11968  1  0.70000000  0.76666667  0.83333333  1
  O  O11969  1  0.70000000  0.96666667  0.03333333  1
  O  O11970  1  0.70000000  0.96666667  0.23333333  1
  O  O11971  1  0.70000000  0.96666667  0.43333333  1
  O  O11972  1  0.70000000  0.96666667  0.63333333  1
  O  O11973  1  0.70000000  0.96666667  0.83333333  1
  O  O11974  1  0.90000000  0.16666667  0.03333333  1
  O  O11975  1  0.90000000  0.16666667  0.23333333  1
  O  O11976  1  0.90000000  0.16666667  0.43333333  1
  O  O11977  1  0.90000000  0.16666667  0.63333333  1
  O  O11978  1  0.90000000  0.16666667  0.83333333  1
  O  O11979  1  0.90000000  0.36666667  0.03333333  1
  O  O11980  1  0.90000000  0.36666667  0.23333333  1
  O  O11981  1  0.90000000  0.36666667  0.43333333  1
  O  O11982  1  0.90000000  0.36666667  0.63333333  1
  O  O11983  1  0.90000000  0.36666667  0.83333333  1
  O  O11984  1  0.90000000  0.56666667  0.03333333  1
  O  O11985  1  0.90000000  0.56666667  0.23333333  1
  O  O11986  1  0.90000000  0.56666667  0.43333333  1
  O  O11987  1  0.90000000  0.56666667  0.63333333  1
  O  O11988  1  0.90000000  0.56666667  0.83333333  1
  O  O11989  1  0.90000000  0.76666667  0.03333333  1
  O  O11990  1  0.90000000  0.76666667  0.23333333  1
  O  O11991  1  0.90000000  0.76666667  0.43333333  1
  O  O11992  1  0.90000000  0.76666667  0.63333333  1
  O  O11993  1  0.90000000  0.76666667  0.83333333  1
  O  O11994  1  0.90000000  0.96666667  0.03333333  1
  O  O11995  1  0.90000000  0.96666667  0.23333333  1
  O  O11996  1  0.90000000  0.96666667  0.43333333  1
  O  O11997  1  0.90000000  0.96666667  0.63333333  1
  O  O11998  1  0.90000000  0.96666667  0.83333333  1
  O  O11999  1  0.10000000  0.16666667  0.10000000  1
  O  O12000  1  0.10000000  0.16666667  0.30000000  1
  O  O12001  1  0.10000000  0.16666667  0.50000000  1
  O  O12002  1  0.10000000  0.16666667  0.70000000  1
  O  O12003  1  0.10000000  0.16666667  0.90000000  1
  O  O12004  1  0.10000000  0.36666667  0.10000000  1
  O  O12005  1  0.10000000  0.36666667  0.30000000  1
  O  O12006  1  0.10000000  0.36666667  0.50000000  1
  O  O12007  1  0.10000000  0.36666667  0.70000000  1
  O  O12008  1  0.10000000  0.36666667  0.90000000  1
  O  O12009  1  0.10000000  0.56666667  0.10000000  1
  O  O12010  1  0.10000000  0.56666667  0.30000000  1
  O  O12011  1  0.10000000  0.56666667  0.50000000  1
  O  O12012  1  0.10000000  0.56666667  0.70000000  1
  O  O12013  1  0.10000000  0.56666667  0.90000000  1
  O  O12014  1  0.10000000  0.76666667  0.10000000  1
  O  O12015  1  0.10000000  0.76666667  0.30000000  1
  O  O12016  1  0.10000000  0.76666667  0.50000000  1
  O  O12017  1  0.10000000  0.76666667  0.70000000  1
  O  O12018  1  0.10000000  0.76666667  0.90000000  1
  O  O12019  1  0.10000000  0.96666667  0.10000000  1
  O  O12020  1  0.10000000  0.96666667  0.30000000  1
  O  O12021  1  0.10000000  0.96666667  0.50000000  1
  O  O12022  1  0.10000000  0.96666667  0.70000000  1
  O  O12023  1  0.10000000  0.96666667  0.90000000  1
  O  O12024  1  0.30000000  0.16666667  0.10000000  1
  O  O12025  1  0.30000000  0.16666667  0.30000000  1
  O  O12026  1  0.30000000  0.16666667  0.50000000  1
  O  O12027  1  0.30000000  0.16666667  0.70000000  1
  O  O12028  1  0.30000000  0.16666667  0.90000000  1
  O  O12029  1  0.30000000  0.36666667  0.10000000  1
  O  O12030  1  0.30000000  0.36666667  0.30000000  1
  O  O12031  1  0.30000000  0.36666667  0.50000000  1
  O  O12032  1  0.30000000  0.36666667  0.70000000  1
  O  O12033  1  0.30000000  0.36666667  0.90000000  1
  O  O12034  1  0.30000000  0.56666667  0.10000000  1
  O  O12035  1  0.30000000  0.56666667  0.30000000  1
  O  O12036  1  0.30000000  0.56666667  0.50000000  1
  O  O12037  1  0.30000000  0.56666667  0.70000000  1
  O  O12038  1  0.30000000  0.56666667  0.90000000  1
  O  O12039  1  0.30000000  0.76666667  0.10000000  1
  O  O12040  1  0.30000000  0.76666667  0.30000000  1
  O  O12041  1  0.30000000  0.76666667  0.50000000  1
  O  O12042  1  0.30000000  0.76666667  0.70000000  1
  O  O12043  1  0.30000000  0.76666667  0.90000000  1
  O  O12044  1  0.30000000  0.96666667  0.10000000  1
  O  O12045  1  0.30000000  0.96666667  0.30000000  1
  O  O12046  1  0.30000000  0.96666667  0.50000000  1
  O  O12047  1  0.30000000  0.96666667  0.70000000  1
  O  O12048  1  0.30000000  0.96666667  0.90000000  1
  O  O12049  1  0.50000000  0.16666667  0.10000000  1
  O  O12050  1  0.50000000  0.16666667  0.30000000  1
  O  O12051  1  0.50000000  0.16666667  0.50000000  1
  O  O12052  1  0.50000000  0.16666667  0.70000000  1
  O  O12053  1  0.50000000  0.16666667  0.90000000  1
  O  O12054  1  0.50000000  0.36666667  0.10000000  1
  O  O12055  1  0.50000000  0.36666667  0.30000000  1
  O  O12056  1  0.50000000  0.36666667  0.50000000  1
  O  O12057  1  0.50000000  0.36666667  0.70000000  1
  O  O12058  1  0.50000000  0.36666667  0.90000000  1
  O  O12059  1  0.50000000  0.56666667  0.10000000  1
  O  O12060  1  0.50000000  0.56666667  0.30000000  1
  O  O12061  1  0.50000000  0.56666667  0.50000000  1
  O  O12062  1  0.50000000  0.56666667  0.70000000  1
  O  O12063  1  0.50000000  0.56666667  0.90000000  1
  O  O12064  1  0.50000000  0.76666667  0.10000000  1
  O  O12065  1  0.50000000  0.76666667  0.30000000  1
  O  O12066  1  0.50000000  0.76666667  0.50000000  1
  O  O12067  1  0.50000000  0.76666667  0.70000000  1
  O  O12068  1  0.50000000  0.76666667  0.90000000  1
  O  O12069  1  0.50000000  0.96666667  0.10000000  1
  O  O12070  1  0.50000000  0.96666667  0.30000000  1
  O  O12071  1  0.50000000  0.96666667  0.50000000  1
  O  O12072  1  0.50000000  0.96666667  0.70000000  1
  O  O12073  1  0.50000000  0.96666667  0.90000000  1
  O  O12074  1  0.70000000  0.16666667  0.10000000  1
  O  O12075  1  0.70000000  0.16666667  0.30000000  1
  O  O12076  1  0.70000000  0.16666667  0.50000000  1
  O  O12077  1  0.70000000  0.16666667  0.70000000  1
  O  O12078  1  0.70000000  0.16666667  0.90000000  1
  O  O12079  1  0.70000000  0.36666667  0.10000000  1
  O  O12080  1  0.70000000  0.36666667  0.30000000  1
  O  O12081  1  0.70000000  0.36666667  0.50000000  1
  O  O12082  1  0.70000000  0.36666667  0.70000000  1
  O  O12083  1  0.70000000  0.36666667  0.90000000  1
  O  O12084  1  0.70000000  0.56666667  0.10000000  1
  O  O12085  1  0.70000000  0.56666667  0.30000000  1
  O  O12086  1  0.70000000  0.56666667  0.50000000  1
  O  O12087  1  0.70000000  0.56666667  0.70000000  1
  O  O12088  1  0.70000000  0.56666667  0.90000000  1
  O  O12089  1  0.70000000  0.76666667  0.10000000  1
  O  O12090  1  0.70000000  0.76666667  0.30000000  1
  O  O12091  1  0.70000000  0.76666667  0.50000000  1
  O  O12092  1  0.70000000  0.76666667  0.70000000  1
  O  O12093  1  0.70000000  0.76666667  0.90000000  1
  O  O12094  1  0.70000000  0.96666667  0.10000000  1
  O  O12095  1  0.70000000  0.96666667  0.30000000  1
  O  O12096  1  0.70000000  0.96666667  0.50000000  1
  O  O12097  1  0.70000000  0.96666667  0.70000000  1
  O  O12098  1  0.70000000  0.96666667  0.90000000  1
  O  O12099  1  0.90000000  0.16666667  0.10000000  1
  O  O12100  1  0.90000000  0.16666667  0.30000000  1
  O  O12101  1  0.90000000  0.16666667  0.50000000  1
  O  O12102  1  0.90000000  0.16666667  0.70000000  1
  O  O12103  1  0.90000000  0.16666667  0.90000000  1
  O  O12104  1  0.90000000  0.36666667  0.10000000  1
  O  O12105  1  0.90000000  0.36666667  0.30000000  1
  O  O12106  1  0.90000000  0.36666667  0.50000000  1
  O  O12107  1  0.90000000  0.36666667  0.70000000  1
  O  O12108  1  0.90000000  0.36666667  0.90000000  1
  O  O12109  1  0.90000000  0.56666667  0.10000000  1
  O  O12110  1  0.90000000  0.56666667  0.30000000  1
  O  O12111  1  0.90000000  0.56666667  0.50000000  1
  O  O12112  1  0.90000000  0.56666667  0.70000000  1
  O  O12113  1  0.90000000  0.56666667  0.90000000  1
  O  O12114  1  0.90000000  0.76666667  0.10000000  1
  O  O12115  1  0.90000000  0.76666667  0.30000000  1
  O  O12116  1  0.90000000  0.76666667  0.50000000  1
  O  O12117  1  0.90000000  0.76666667  0.70000000  1
  O  O12118  1  0.90000000  0.76666667  0.90000000  1
  O  O12119  1  0.90000000  0.96666667  0.10000000  1
  O  O12120  1  0.90000000  0.96666667  0.30000000  1
  O  O12121  1  0.90000000  0.96666667  0.50000000  1
  O  O12122  1  0.90000000  0.96666667  0.70000000  1
  O  O12123  1  0.90000000  0.96666667  0.90000000  1
  O  O12124  1  0.10000000  0.16666667  0.16666667  1
  O  O12125  1  0.10000000  0.16666667  0.36666667  1
  O  O12126  1  0.10000000  0.16666667  0.56666667  1
  O  O12127  1  0.10000000  0.16666667  0.76666667  1
  O  O12128  1  0.10000000  0.16666667  0.96666667  1
  O  O12129  1  0.10000000  0.36666667  0.16666667  1
  O  O12130  1  0.10000000  0.36666667  0.36666667  1
  O  O12131  1  0.10000000  0.36666667  0.56666667  1
  O  O12132  1  0.10000000  0.36666667  0.76666667  1
  O  O12133  1  0.10000000  0.36666667  0.96666667  1
  O  O12134  1  0.10000000  0.56666667  0.16666667  1
  O  O12135  1  0.10000000  0.56666667  0.36666667  1
  O  O12136  1  0.10000000  0.56666667  0.56666667  1
  O  O12137  1  0.10000000  0.56666667  0.76666667  1
  O  O12138  1  0.10000000  0.56666667  0.96666667  1
  O  O12139  1  0.10000000  0.76666667  0.16666667  1
  O  O12140  1  0.10000000  0.76666667  0.36666667  1
  O  O12141  1  0.10000000  0.76666667  0.56666667  1
  O  O12142  1  0.10000000  0.76666667  0.76666667  1
  O  O12143  1  0.10000000  0.76666667  0.96666667  1
  O  O12144  1  0.10000000  0.96666667  0.16666667  1
  O  O12145  1  0.10000000  0.96666667  0.36666667  1
  O  O12146  1  0.10000000  0.96666667  0.56666667  1
  O  O12147  1  0.10000000  0.96666667  0.76666667  1
  O  O12148  1  0.10000000  0.96666667  0.96666667  1
  O  O12149  1  0.30000000  0.16666667  0.16666667  1
  O  O12150  1  0.30000000  0.16666667  0.36666667  1
  O  O12151  1  0.30000000  0.16666667  0.56666667  1
  O  O12152  1  0.30000000  0.16666667  0.76666667  1
  O  O12153  1  0.30000000  0.16666667  0.96666667  1
  O  O12154  1  0.30000000  0.36666667  0.16666667  1
  O  O12155  1  0.30000000  0.36666667  0.36666667  1
  O  O12156  1  0.30000000  0.36666667  0.56666667  1
  O  O12157  1  0.30000000  0.36666667  0.76666667  1
  O  O12158  1  0.30000000  0.36666667  0.96666667  1
  O  O12159  1  0.30000000  0.56666667  0.16666667  1
  O  O12160  1  0.30000000  0.56666667  0.36666667  1
  O  O12161  1  0.30000000  0.56666667  0.56666667  1
  O  O12162  1  0.30000000  0.56666667  0.76666667  1
  O  O12163  1  0.30000000  0.56666667  0.96666667  1
  O  O12164  1  0.30000000  0.76666667  0.16666667  1
  O  O12165  1  0.30000000  0.76666667  0.36666667  1
  O  O12166  1  0.30000000  0.76666667  0.56666667  1
  O  O12167  1  0.30000000  0.76666667  0.76666667  1
  O  O12168  1  0.30000000  0.76666667  0.96666667  1
  O  O12169  1  0.30000000  0.96666667  0.16666667  1
  O  O12170  1  0.30000000  0.96666667  0.36666667  1
  O  O12171  1  0.30000000  0.96666667  0.56666667  1
  O  O12172  1  0.30000000  0.96666667  0.76666667  1
  O  O12173  1  0.30000000  0.96666667  0.96666667  1
  O  O12174  1  0.50000000  0.16666667  0.16666667  1
  O  O12175  1  0.50000000  0.16666667  0.36666667  1
  O  O12176  1  0.50000000  0.16666667  0.56666667  1
  O  O12177  1  0.50000000  0.16666667  0.76666667  1
  O  O12178  1  0.50000000  0.16666667  0.96666667  1
  O  O12179  1  0.50000000  0.36666667  0.16666667  1
  O  O12180  1  0.50000000  0.36666667  0.36666667  1
  O  O12181  1  0.50000000  0.36666667  0.56666667  1
  O  O12182  1  0.50000000  0.36666667  0.76666667  1
  O  O12183  1  0.50000000  0.36666667  0.96666667  1
  O  O12184  1  0.50000000  0.56666667  0.16666667  1
  O  O12185  1  0.50000000  0.56666667  0.36666667  1
  O  O12186  1  0.50000000  0.56666667  0.56666667  1
  O  O12187  1  0.50000000  0.56666667  0.76666667  1
  O  O12188  1  0.50000000  0.56666667  0.96666667  1
  O  O12189  1  0.50000000  0.76666667  0.16666667  1
  O  O12190  1  0.50000000  0.76666667  0.36666667  1
  O  O12191  1  0.50000000  0.76666667  0.56666667  1
  O  O12192  1  0.50000000  0.76666667  0.76666667  1
  O  O12193  1  0.50000000  0.76666667  0.96666667  1
  O  O12194  1  0.50000000  0.96666667  0.16666667  1
  O  O12195  1  0.50000000  0.96666667  0.36666667  1
  O  O12196  1  0.50000000  0.96666667  0.56666667  1
  O  O12197  1  0.50000000  0.96666667  0.76666667  1
  O  O12198  1  0.50000000  0.96666667  0.96666667  1
  O  O12199  1  0.70000000  0.16666667  0.16666667  1
  O  O12200  1  0.70000000  0.16666667  0.36666667  1
  O  O12201  1  0.70000000  0.16666667  0.56666667  1
  O  O12202  1  0.70000000  0.16666667  0.76666667  1
  O  O12203  1  0.70000000  0.16666667  0.96666667  1
  O  O12204  1  0.70000000  0.36666667  0.16666667  1
  O  O12205  1  0.70000000  0.36666667  0.36666667  1
  O  O12206  1  0.70000000  0.36666667  0.56666667  1
  O  O12207  1  0.70000000  0.36666667  0.76666667  1
  O  O12208  1  0.70000000  0.36666667  0.96666667  1
  O  O12209  1  0.70000000  0.56666667  0.16666667  1
  O  O12210  1  0.70000000  0.56666667  0.36666667  1
  O  O12211  1  0.70000000  0.56666667  0.56666667  1
  O  O12212  1  0.70000000  0.56666667  0.76666667  1
  O  O12213  1  0.70000000  0.56666667  0.96666667  1
  O  O12214  1  0.70000000  0.76666667  0.16666667  1
  O  O12215  1  0.70000000  0.76666667  0.36666667  1
  O  O12216  1  0.70000000  0.76666667  0.56666667  1
  O  O12217  1  0.70000000  0.76666667  0.76666667  1
  O  O12218  1  0.70000000  0.76666667  0.96666667  1
  O  O12219  1  0.70000000  0.96666667  0.16666667  1
  O  O12220  1  0.70000000  0.96666667  0.36666667  1
  O  O12221  1  0.70000000  0.96666667  0.56666667  1
  O  O12222  1  0.70000000  0.96666667  0.76666667  1
  O  O12223  1  0.70000000  0.96666667  0.96666667  1
  O  O12224  1  0.90000000  0.16666667  0.16666667  1
  O  O12225  1  0.90000000  0.16666667  0.36666667  1
  O  O12226  1  0.90000000  0.16666667  0.56666667  1
  O  O12227  1  0.90000000  0.16666667  0.76666667  1
  O  O12228  1  0.90000000  0.16666667  0.96666667  1
  O  O12229  1  0.90000000  0.36666667  0.16666667  1
  O  O12230  1  0.90000000  0.36666667  0.36666667  1
  O  O12231  1  0.90000000  0.36666667  0.56666667  1
  O  O12232  1  0.90000000  0.36666667  0.76666667  1
  O  O12233  1  0.90000000  0.36666667  0.96666667  1
  O  O12234  1  0.90000000  0.56666667  0.16666667  1
  O  O12235  1  0.90000000  0.56666667  0.36666667  1
  O  O12236  1  0.90000000  0.56666667  0.56666667  1
  O  O12237  1  0.90000000  0.56666667  0.76666667  1
  O  O12238  1  0.90000000  0.56666667  0.96666667  1
  O  O12239  1  0.90000000  0.76666667  0.16666667  1
  O  O12240  1  0.90000000  0.76666667  0.36666667  1
  O  O12241  1  0.90000000  0.76666667  0.56666667  1
  O  O12242  1  0.90000000  0.76666667  0.76666667  1
  O  O12243  1  0.90000000  0.76666667  0.96666667  1
  O  O12244  1  0.90000000  0.96666667  0.16666667  1
  O  O12245  1  0.90000000  0.96666667  0.36666667  1
  O  O12246  1  0.90000000  0.96666667  0.56666667  1
  O  O12247  1  0.90000000  0.96666667  0.76666667  1
  O  O12248  1  0.90000000  0.96666667  0.96666667  1
  O  O12249  1  0.16666667  0.03333333  0.03333333  1
  O  O12250  1  0.16666667  0.03333333  0.23333333  1
  O  O12251  1  0.16666667  0.03333333  0.43333333  1
  O  O12252  1  0.16666667  0.03333333  0.63333333  1
  O  O12253  1  0.16666667  0.03333333  0.83333333  1
  O  O12254  1  0.16666667  0.23333333  0.03333333  1
  O  O12255  1  0.16666667  0.23333333  0.23333333  1
  O  O12256  1  0.16666667  0.23333333  0.43333333  1
  O  O12257  1  0.16666667  0.23333333  0.63333333  1
  O  O12258  1  0.16666667  0.23333333  0.83333333  1
  O  O12259  1  0.16666667  0.43333333  0.03333333  1
  O  O12260  1  0.16666667  0.43333333  0.23333333  1
  O  O12261  1  0.16666667  0.43333333  0.43333333  1
  O  O12262  1  0.16666667  0.43333333  0.63333333  1
  O  O12263  1  0.16666667  0.43333333  0.83333333  1
  O  O12264  1  0.16666667  0.63333333  0.03333333  1
  O  O12265  1  0.16666667  0.63333333  0.23333333  1
  O  O12266  1  0.16666667  0.63333333  0.43333333  1
  O  O12267  1  0.16666667  0.63333333  0.63333333  1
  O  O12268  1  0.16666667  0.63333333  0.83333333  1
  O  O12269  1  0.16666667  0.83333333  0.03333333  1
  O  O12270  1  0.16666667  0.83333333  0.23333333  1
  O  O12271  1  0.16666667  0.83333333  0.43333333  1
  O  O12272  1  0.16666667  0.83333333  0.63333333  1
  O  O12273  1  0.16666667  0.83333333  0.83333333  1
  O  O12274  1  0.36666667  0.03333333  0.03333333  1
  O  O12275  1  0.36666667  0.03333333  0.23333333  1
  O  O12276  1  0.36666667  0.03333333  0.43333333  1
  O  O12277  1  0.36666667  0.03333333  0.63333333  1
  O  O12278  1  0.36666667  0.03333333  0.83333333  1
  O  O12279  1  0.36666667  0.23333333  0.03333333  1
  O  O12280  1  0.36666667  0.23333333  0.23333333  1
  O  O12281  1  0.36666667  0.23333333  0.43333333  1
  O  O12282  1  0.36666667  0.23333333  0.63333333  1
  O  O12283  1  0.36666667  0.23333333  0.83333333  1
  O  O12284  1  0.36666667  0.43333333  0.03333333  1
  O  O12285  1  0.36666667  0.43333333  0.23333333  1
  O  O12286  1  0.36666667  0.43333333  0.43333333  1
  O  O12287  1  0.36666667  0.43333333  0.63333333  1
  O  O12288  1  0.36666667  0.43333333  0.83333333  1
  O  O12289  1  0.36666667  0.63333333  0.03333333  1
  O  O12290  1  0.36666667  0.63333333  0.23333333  1
  O  O12291  1  0.36666667  0.63333333  0.43333333  1
  O  O12292  1  0.36666667  0.63333333  0.63333333  1
  O  O12293  1  0.36666667  0.63333333  0.83333333  1
  O  O12294  1  0.36666667  0.83333333  0.03333333  1
  O  O12295  1  0.36666667  0.83333333  0.23333333  1
  O  O12296  1  0.36666667  0.83333333  0.43333333  1
  O  O12297  1  0.36666667  0.83333333  0.63333333  1
  O  O12298  1  0.36666667  0.83333333  0.83333333  1
  O  O12299  1  0.56666667  0.03333333  0.03333333  1
  O  O12300  1  0.56666667  0.03333333  0.23333333  1
  O  O12301  1  0.56666667  0.03333333  0.43333333  1
  O  O12302  1  0.56666667  0.03333333  0.63333333  1
  O  O12303  1  0.56666667  0.03333333  0.83333333  1
  O  O12304  1  0.56666667  0.23333333  0.03333333  1
  O  O12305  1  0.56666667  0.23333333  0.23333333  1
  O  O12306  1  0.56666667  0.23333333  0.43333333  1
  O  O12307  1  0.56666667  0.23333333  0.63333333  1
  O  O12308  1  0.56666667  0.23333333  0.83333333  1
  O  O12309  1  0.56666667  0.43333333  0.03333333  1
  O  O12310  1  0.56666667  0.43333333  0.23333333  1
  O  O12311  1  0.56666667  0.43333333  0.43333333  1
  O  O12312  1  0.56666667  0.43333333  0.63333333  1
  O  O12313  1  0.56666667  0.43333333  0.83333333  1
  O  O12314  1  0.56666667  0.63333333  0.03333333  1
  O  O12315  1  0.56666667  0.63333333  0.23333333  1
  O  O12316  1  0.56666667  0.63333333  0.43333333  1
  O  O12317  1  0.56666667  0.63333333  0.63333333  1
  O  O12318  1  0.56666667  0.63333333  0.83333333  1
  O  O12319  1  0.56666667  0.83333333  0.03333333  1
  O  O12320  1  0.56666667  0.83333333  0.23333333  1
  O  O12321  1  0.56666667  0.83333333  0.43333333  1
  O  O12322  1  0.56666667  0.83333333  0.63333333  1
  O  O12323  1  0.56666667  0.83333333  0.83333333  1
  O  O12324  1  0.76666667  0.03333333  0.03333333  1
  O  O12325  1  0.76666667  0.03333333  0.23333333  1
  O  O12326  1  0.76666667  0.03333333  0.43333333  1
  O  O12327  1  0.76666667  0.03333333  0.63333333  1
  O  O12328  1  0.76666667  0.03333333  0.83333333  1
  O  O12329  1  0.76666667  0.23333333  0.03333333  1
  O  O12330  1  0.76666667  0.23333333  0.23333333  1
  O  O12331  1  0.76666667  0.23333333  0.43333333  1
  O  O12332  1  0.76666667  0.23333333  0.63333333  1
  O  O12333  1  0.76666667  0.23333333  0.83333333  1
  O  O12334  1  0.76666667  0.43333333  0.03333333  1
  O  O12335  1  0.76666667  0.43333333  0.23333333  1
  O  O12336  1  0.76666667  0.43333333  0.43333333  1
  O  O12337  1  0.76666667  0.43333333  0.63333333  1
  O  O12338  1  0.76666667  0.43333333  0.83333333  1
  O  O12339  1  0.76666667  0.63333333  0.03333333  1
  O  O12340  1  0.76666667  0.63333333  0.23333333  1
  O  O12341  1  0.76666667  0.63333333  0.43333333  1
  O  O12342  1  0.76666667  0.63333333  0.63333333  1
  O  O12343  1  0.76666667  0.63333333  0.83333333  1
  O  O12344  1  0.76666667  0.83333333  0.03333333  1
  O  O12345  1  0.76666667  0.83333333  0.23333333  1
  O  O12346  1  0.76666667  0.83333333  0.43333333  1
  O  O12347  1  0.76666667  0.83333333  0.63333333  1
  O  O12348  1  0.76666667  0.83333333  0.83333333  1
  O  O12349  1  0.96666667  0.03333333  0.03333333  1
  O  O12350  1  0.96666667  0.03333333  0.23333333  1
  O  O12351  1  0.96666667  0.03333333  0.43333333  1
  O  O12352  1  0.96666667  0.03333333  0.63333333  1
  O  O12353  1  0.96666667  0.03333333  0.83333333  1
  O  O12354  1  0.96666667  0.23333333  0.03333333  1
  O  O12355  1  0.96666667  0.23333333  0.23333333  1
  O  O12356  1  0.96666667  0.23333333  0.43333333  1
  O  O12357  1  0.96666667  0.23333333  0.63333333  1
  O  O12358  1  0.96666667  0.23333333  0.83333333  1
  O  O12359  1  0.96666667  0.43333333  0.03333333  1
  O  O12360  1  0.96666667  0.43333333  0.23333333  1
  O  O12361  1  0.96666667  0.43333333  0.43333333  1
  O  O12362  1  0.96666667  0.43333333  0.63333333  1
  O  O12363  1  0.96666667  0.43333333  0.83333333  1
  O  O12364  1  0.96666667  0.63333333  0.03333333  1
  O  O12365  1  0.96666667  0.63333333  0.23333333  1
  O  O12366  1  0.96666667  0.63333333  0.43333333  1
  O  O12367  1  0.96666667  0.63333333  0.63333333  1
  O  O12368  1  0.96666667  0.63333333  0.83333333  1
  O  O12369  1  0.96666667  0.83333333  0.03333333  1
  O  O12370  1  0.96666667  0.83333333  0.23333333  1
  O  O12371  1  0.96666667  0.83333333  0.43333333  1
  O  O12372  1  0.96666667  0.83333333  0.63333333  1
  O  O12373  1  0.96666667  0.83333333  0.83333333  1
  O  O12374  1  0.16666667  0.03333333  0.10000000  1
  O  O12375  1  0.16666667  0.03333333  0.30000000  1
  O  O12376  1  0.16666667  0.03333333  0.50000000  1
  O  O12377  1  0.16666667  0.03333333  0.70000000  1
  O  O12378  1  0.16666667  0.03333333  0.90000000  1
  O  O12379  1  0.16666667  0.23333333  0.10000000  1
  O  O12380  1  0.16666667  0.23333333  0.30000000  1
  O  O12381  1  0.16666667  0.23333333  0.50000000  1
  O  O12382  1  0.16666667  0.23333333  0.70000000  1
  O  O12383  1  0.16666667  0.23333333  0.90000000  1
  O  O12384  1  0.16666667  0.43333333  0.10000000  1
  O  O12385  1  0.16666667  0.43333333  0.30000000  1
  O  O12386  1  0.16666667  0.43333333  0.50000000  1
  O  O12387  1  0.16666667  0.43333333  0.70000000  1
  O  O12388  1  0.16666667  0.43333333  0.90000000  1
  O  O12389  1  0.16666667  0.63333333  0.10000000  1
  O  O12390  1  0.16666667  0.63333333  0.30000000  1
  O  O12391  1  0.16666667  0.63333333  0.50000000  1
  O  O12392  1  0.16666667  0.63333333  0.70000000  1
  O  O12393  1  0.16666667  0.63333333  0.90000000  1
  O  O12394  1  0.16666667  0.83333333  0.10000000  1
  O  O12395  1  0.16666667  0.83333333  0.30000000  1
  O  O12396  1  0.16666667  0.83333333  0.50000000  1
  O  O12397  1  0.16666667  0.83333333  0.70000000  1
  O  O12398  1  0.16666667  0.83333333  0.90000000  1
  O  O12399  1  0.36666667  0.03333333  0.10000000  1
  O  O12400  1  0.36666667  0.03333333  0.30000000  1
  O  O12401  1  0.36666667  0.03333333  0.50000000  1
  O  O12402  1  0.36666667  0.03333333  0.70000000  1
  O  O12403  1  0.36666667  0.03333333  0.90000000  1
  O  O12404  1  0.36666667  0.23333333  0.10000000  1
  O  O12405  1  0.36666667  0.23333333  0.30000000  1
  O  O12406  1  0.36666667  0.23333333  0.50000000  1
  O  O12407  1  0.36666667  0.23333333  0.70000000  1
  O  O12408  1  0.36666667  0.23333333  0.90000000  1
  O  O12409  1  0.36666667  0.43333333  0.10000000  1
  O  O12410  1  0.36666667  0.43333333  0.30000000  1
  O  O12411  1  0.36666667  0.43333333  0.50000000  1
  O  O12412  1  0.36666667  0.43333333  0.70000000  1
  O  O12413  1  0.36666667  0.43333333  0.90000000  1
  O  O12414  1  0.36666667  0.63333333  0.10000000  1
  O  O12415  1  0.36666667  0.63333333  0.30000000  1
  O  O12416  1  0.36666667  0.63333333  0.50000000  1
  O  O12417  1  0.36666667  0.63333333  0.70000000  1
  O  O12418  1  0.36666667  0.63333333  0.90000000  1
  O  O12419  1  0.36666667  0.83333333  0.10000000  1
  O  O12420  1  0.36666667  0.83333333  0.30000000  1
  O  O12421  1  0.36666667  0.83333333  0.50000000  1
  O  O12422  1  0.36666667  0.83333333  0.70000000  1
  O  O12423  1  0.36666667  0.83333333  0.90000000  1
  O  O12424  1  0.56666667  0.03333333  0.10000000  1
  O  O12425  1  0.56666667  0.03333333  0.30000000  1
  O  O12426  1  0.56666667  0.03333333  0.50000000  1
  O  O12427  1  0.56666667  0.03333333  0.70000000  1
  O  O12428  1  0.56666667  0.03333333  0.90000000  1
  O  O12429  1  0.56666667  0.23333333  0.10000000  1
  O  O12430  1  0.56666667  0.23333333  0.30000000  1
  O  O12431  1  0.56666667  0.23333333  0.50000000  1
  O  O12432  1  0.56666667  0.23333333  0.70000000  1
  O  O12433  1  0.56666667  0.23333333  0.90000000  1
  O  O12434  1  0.56666667  0.43333333  0.10000000  1
  O  O12435  1  0.56666667  0.43333333  0.30000000  1
  O  O12436  1  0.56666667  0.43333333  0.50000000  1
  O  O12437  1  0.56666667  0.43333333  0.70000000  1
  O  O12438  1  0.56666667  0.43333333  0.90000000  1
  O  O12439  1  0.56666667  0.63333333  0.10000000  1
  O  O12440  1  0.56666667  0.63333333  0.30000000  1
  O  O12441  1  0.56666667  0.63333333  0.50000000  1
  O  O12442  1  0.56666667  0.63333333  0.70000000  1
  O  O12443  1  0.56666667  0.63333333  0.90000000  1
  O  O12444  1  0.56666667  0.83333333  0.10000000  1
  O  O12445  1  0.56666667  0.83333333  0.30000000  1
  O  O12446  1  0.56666667  0.83333333  0.50000000  1
  O  O12447  1  0.56666667  0.83333333  0.70000000  1
  O  O12448  1  0.56666667  0.83333333  0.90000000  1
  O  O12449  1  0.76666667  0.03333333  0.10000000  1
  O  O12450  1  0.76666667  0.03333333  0.30000000  1
  O  O12451  1  0.76666667  0.03333333  0.50000000  1
  O  O12452  1  0.76666667  0.03333333  0.70000000  1
  O  O12453  1  0.76666667  0.03333333  0.90000000  1
  O  O12454  1  0.76666667  0.23333333  0.10000000  1
  O  O12455  1  0.76666667  0.23333333  0.30000000  1
  O  O12456  1  0.76666667  0.23333333  0.50000000  1
  O  O12457  1  0.76666667  0.23333333  0.70000000  1
  O  O12458  1  0.76666667  0.23333333  0.90000000  1
  O  O12459  1  0.76666667  0.43333333  0.10000000  1
  O  O12460  1  0.76666667  0.43333333  0.30000000  1
  O  O12461  1  0.76666667  0.43333333  0.50000000  1
  O  O12462  1  0.76666667  0.43333333  0.70000000  1
  O  O12463  1  0.76666667  0.43333333  0.90000000  1
  O  O12464  1  0.76666667  0.63333333  0.10000000  1
  O  O12465  1  0.76666667  0.63333333  0.30000000  1
  O  O12466  1  0.76666667  0.63333333  0.50000000  1
  O  O12467  1  0.76666667  0.63333333  0.70000000  1
  O  O12468  1  0.76666667  0.63333333  0.90000000  1
  O  O12469  1  0.76666667  0.83333333  0.10000000  1
  O  O12470  1  0.76666667  0.83333333  0.30000000  1
  O  O12471  1  0.76666667  0.83333333  0.50000000  1
  O  O12472  1  0.76666667  0.83333333  0.70000000  1
  O  O12473  1  0.76666667  0.83333333  0.90000000  1
  O  O12474  1  0.96666667  0.03333333  0.10000000  1
  O  O12475  1  0.96666667  0.03333333  0.30000000  1
  O  O12476  1  0.96666667  0.03333333  0.50000000  1
  O  O12477  1  0.96666667  0.03333333  0.70000000  1
  O  O12478  1  0.96666667  0.03333333  0.90000000  1
  O  O12479  1  0.96666667  0.23333333  0.10000000  1
  O  O12480  1  0.96666667  0.23333333  0.30000000  1
  O  O12481  1  0.96666667  0.23333333  0.50000000  1
  O  O12482  1  0.96666667  0.23333333  0.70000000  1
  O  O12483  1  0.96666667  0.23333333  0.90000000  1
  O  O12484  1  0.96666667  0.43333333  0.10000000  1
  O  O12485  1  0.96666667  0.43333333  0.30000000  1
  O  O12486  1  0.96666667  0.43333333  0.50000000  1
  O  O12487  1  0.96666667  0.43333333  0.70000000  1
  O  O12488  1  0.96666667  0.43333333  0.90000000  1
  O  O12489  1  0.96666667  0.63333333  0.10000000  1
  O  O12490  1  0.96666667  0.63333333  0.30000000  1
  O  O12491  1  0.96666667  0.63333333  0.50000000  1
  O  O12492  1  0.96666667  0.63333333  0.70000000  1
  O  O12493  1  0.96666667  0.63333333  0.90000000  1
  O  O12494  1  0.96666667  0.83333333  0.10000000  1
  O  O12495  1  0.96666667  0.83333333  0.30000000  1
  O  O12496  1  0.96666667  0.83333333  0.50000000  1
  O  O12497  1  0.96666667  0.83333333  0.70000000  1
  O  O12498  1  0.96666667  0.83333333  0.90000000  1
  O  O12499  1  0.16666667  0.03333333  0.16666667  1
  O  O12500  1  0.16666667  0.03333333  0.36666667  1
  O  O12501  1  0.16666667  0.03333333  0.56666667  1
  O  O12502  1  0.16666667  0.03333333  0.76666667  1
  O  O12503  1  0.16666667  0.03333333  0.96666667  1
  O  O12504  1  0.16666667  0.23333333  0.16666667  1
  O  O12505  1  0.16666667  0.23333333  0.36666667  1
  O  O12506  1  0.16666667  0.23333333  0.56666667  1
  O  O12507  1  0.16666667  0.23333333  0.76666667  1
  O  O12508  1  0.16666667  0.23333333  0.96666667  1
  O  O12509  1  0.16666667  0.43333333  0.16666667  1
  O  O12510  1  0.16666667  0.43333333  0.36666667  1
  O  O12511  1  0.16666667  0.43333333  0.56666667  1
  O  O12512  1  0.16666667  0.43333333  0.76666667  1
  O  O12513  1  0.16666667  0.43333333  0.96666667  1
  O  O12514  1  0.16666667  0.63333333  0.16666667  1
  O  O12515  1  0.16666667  0.63333333  0.36666667  1
  O  O12516  1  0.16666667  0.63333333  0.56666667  1
  O  O12517  1  0.16666667  0.63333333  0.76666667  1
  O  O12518  1  0.16666667  0.63333333  0.96666667  1
  O  O12519  1  0.16666667  0.83333333  0.16666667  1
  O  O12520  1  0.16666667  0.83333333  0.36666667  1
  O  O12521  1  0.16666667  0.83333333  0.56666667  1
  O  O12522  1  0.16666667  0.83333333  0.76666667  1
  O  O12523  1  0.16666667  0.83333333  0.96666667  1
  O  O12524  1  0.36666667  0.03333333  0.16666667  1
  O  O12525  1  0.36666667  0.03333333  0.36666667  1
  O  O12526  1  0.36666667  0.03333333  0.56666667  1
  O  O12527  1  0.36666667  0.03333333  0.76666667  1
  O  O12528  1  0.36666667  0.03333333  0.96666667  1
  O  O12529  1  0.36666667  0.23333333  0.16666667  1
  O  O12530  1  0.36666667  0.23333333  0.36666667  1
  O  O12531  1  0.36666667  0.23333333  0.56666667  1
  O  O12532  1  0.36666667  0.23333333  0.76666667  1
  O  O12533  1  0.36666667  0.23333333  0.96666667  1
  O  O12534  1  0.36666667  0.43333333  0.16666667  1
  O  O12535  1  0.36666667  0.43333333  0.36666667  1
  O  O12536  1  0.36666667  0.43333333  0.56666667  1
  O  O12537  1  0.36666667  0.43333333  0.76666667  1
  O  O12538  1  0.36666667  0.43333333  0.96666667  1
  O  O12539  1  0.36666667  0.63333333  0.16666667  1
  O  O12540  1  0.36666667  0.63333333  0.36666667  1
  O  O12541  1  0.36666667  0.63333333  0.56666667  1
  O  O12542  1  0.36666667  0.63333333  0.76666667  1
  O  O12543  1  0.36666667  0.63333333  0.96666667  1
  O  O12544  1  0.36666667  0.83333333  0.16666667  1
  O  O12545  1  0.36666667  0.83333333  0.36666667  1
  O  O12546  1  0.36666667  0.83333333  0.56666667  1
  O  O12547  1  0.36666667  0.83333333  0.76666667  1
  O  O12548  1  0.36666667  0.83333333  0.96666667  1
  O  O12549  1  0.56666667  0.03333333  0.16666667  1
  O  O12550  1  0.56666667  0.03333333  0.36666667  1
  O  O12551  1  0.56666667  0.03333333  0.56666667  1
  O  O12552  1  0.56666667  0.03333333  0.76666667  1
  O  O12553  1  0.56666667  0.03333333  0.96666667  1
  O  O12554  1  0.56666667  0.23333333  0.16666667  1
  O  O12555  1  0.56666667  0.23333333  0.36666667  1
  O  O12556  1  0.56666667  0.23333333  0.56666667  1
  O  O12557  1  0.56666667  0.23333333  0.76666667  1
  O  O12558  1  0.56666667  0.23333333  0.96666667  1
  O  O12559  1  0.56666667  0.43333333  0.16666667  1
  O  O12560  1  0.56666667  0.43333333  0.36666667  1
  O  O12561  1  0.56666667  0.43333333  0.56666667  1
  O  O12562  1  0.56666667  0.43333333  0.76666667  1
  O  O12563  1  0.56666667  0.43333333  0.96666667  1
  O  O12564  1  0.56666667  0.63333333  0.16666667  1
  O  O12565  1  0.56666667  0.63333333  0.36666667  1
  O  O12566  1  0.56666667  0.63333333  0.56666667  1
  O  O12567  1  0.56666667  0.63333333  0.76666667  1
  O  O12568  1  0.56666667  0.63333333  0.96666667  1
  O  O12569  1  0.56666667  0.83333333  0.16666667  1
  O  O12570  1  0.56666667  0.83333333  0.36666667  1
  O  O12571  1  0.56666667  0.83333333  0.56666667  1
  O  O12572  1  0.56666667  0.83333333  0.76666667  1
  O  O12573  1  0.56666667  0.83333333  0.96666667  1
  O  O12574  1  0.76666667  0.03333333  0.16666667  1
  O  O12575  1  0.76666667  0.03333333  0.36666667  1
  O  O12576  1  0.76666667  0.03333333  0.56666667  1
  O  O12577  1  0.76666667  0.03333333  0.76666667  1
  O  O12578  1  0.76666667  0.03333333  0.96666667  1
  O  O12579  1  0.76666667  0.23333333  0.16666667  1
  O  O12580  1  0.76666667  0.23333333  0.36666667  1
  O  O12581  1  0.76666667  0.23333333  0.56666667  1
  O  O12582  1  0.76666667  0.23333333  0.76666667  1
  O  O12583  1  0.76666667  0.23333333  0.96666667  1
  O  O12584  1  0.76666667  0.43333333  0.16666667  1
  O  O12585  1  0.76666667  0.43333333  0.36666667  1
  O  O12586  1  0.76666667  0.43333333  0.56666667  1
  O  O12587  1  0.76666667  0.43333333  0.76666667  1
  O  O12588  1  0.76666667  0.43333333  0.96666667  1
  O  O12589  1  0.76666667  0.63333333  0.16666667  1
  O  O12590  1  0.76666667  0.63333333  0.36666667  1
  O  O12591  1  0.76666667  0.63333333  0.56666667  1
  O  O12592  1  0.76666667  0.63333333  0.76666667  1
  O  O12593  1  0.76666667  0.63333333  0.96666667  1
  O  O12594  1  0.76666667  0.83333333  0.16666667  1
  O  O12595  1  0.76666667  0.83333333  0.36666667  1
  O  O12596  1  0.76666667  0.83333333  0.56666667  1
  O  O12597  1  0.76666667  0.83333333  0.76666667  1
  O  O12598  1  0.76666667  0.83333333  0.96666667  1
  O  O12599  1  0.96666667  0.03333333  0.16666667  1
  O  O12600  1  0.96666667  0.03333333  0.36666667  1
  O  O12601  1  0.96666667  0.03333333  0.56666667  1
  O  O12602  1  0.96666667  0.03333333  0.76666667  1
  O  O12603  1  0.96666667  0.03333333  0.96666667  1
  O  O12604  1  0.96666667  0.23333333  0.16666667  1
  O  O12605  1  0.96666667  0.23333333  0.36666667  1
  O  O12606  1  0.96666667  0.23333333  0.56666667  1
  O  O12607  1  0.96666667  0.23333333  0.76666667  1
  O  O12608  1  0.96666667  0.23333333  0.96666667  1
  O  O12609  1  0.96666667  0.43333333  0.16666667  1
  O  O12610  1  0.96666667  0.43333333  0.36666667  1
  O  O12611  1  0.96666667  0.43333333  0.56666667  1
  O  O12612  1  0.96666667  0.43333333  0.76666667  1
  O  O12613  1  0.96666667  0.43333333  0.96666667  1
  O  O12614  1  0.96666667  0.63333333  0.16666667  1
  O  O12615  1  0.96666667  0.63333333  0.36666667  1
  O  O12616  1  0.96666667  0.63333333  0.56666667  1
  O  O12617  1  0.96666667  0.63333333  0.76666667  1
  O  O12618  1  0.96666667  0.63333333  0.96666667  1
  O  O12619  1  0.96666667  0.83333333  0.16666667  1
  O  O12620  1  0.96666667  0.83333333  0.36666667  1
  O  O12621  1  0.96666667  0.83333333  0.56666667  1
  O  O12622  1  0.96666667  0.83333333  0.76666667  1
  O  O12623  1  0.96666667  0.83333333  0.96666667  1
  O  O12624  1  0.16666667  0.10000000  0.03333333  1
  O  O12625  1  0.16666667  0.10000000  0.23333333  1
  O  O12626  1  0.16666667  0.10000000  0.43333333  1
  O  O12627  1  0.16666667  0.10000000  0.63333333  1
  O  O12628  1  0.16666667  0.10000000  0.83333333  1
  O  O12629  1  0.16666667  0.30000000  0.03333333  1
  O  O12630  1  0.16666667  0.30000000  0.23333333  1
  O  O12631  1  0.16666667  0.30000000  0.43333333  1
  O  O12632  1  0.16666667  0.30000000  0.63333333  1
  O  O12633  1  0.16666667  0.30000000  0.83333333  1
  O  O12634  1  0.16666667  0.50000000  0.03333333  1
  O  O12635  1  0.16666667  0.50000000  0.23333333  1
  O  O12636  1  0.16666667  0.50000000  0.43333333  1
  O  O12637  1  0.16666667  0.50000000  0.63333333  1
  O  O12638  1  0.16666667  0.50000000  0.83333333  1
  O  O12639  1  0.16666667  0.70000000  0.03333333  1
  O  O12640  1  0.16666667  0.70000000  0.23333333  1
  O  O12641  1  0.16666667  0.70000000  0.43333333  1
  O  O12642  1  0.16666667  0.70000000  0.63333333  1
  O  O12643  1  0.16666667  0.70000000  0.83333333  1
  O  O12644  1  0.16666667  0.90000000  0.03333333  1
  O  O12645  1  0.16666667  0.90000000  0.23333333  1
  O  O12646  1  0.16666667  0.90000000  0.43333333  1
  O  O12647  1  0.16666667  0.90000000  0.63333333  1
  O  O12648  1  0.16666667  0.90000000  0.83333333  1
  O  O12649  1  0.36666667  0.10000000  0.03333333  1
  O  O12650  1  0.36666667  0.10000000  0.23333333  1
  O  O12651  1  0.36666667  0.10000000  0.43333333  1
  O  O12652  1  0.36666667  0.10000000  0.63333333  1
  O  O12653  1  0.36666667  0.10000000  0.83333333  1
  O  O12654  1  0.36666667  0.30000000  0.03333333  1
  O  O12655  1  0.36666667  0.30000000  0.23333333  1
  O  O12656  1  0.36666667  0.30000000  0.43333333  1
  O  O12657  1  0.36666667  0.30000000  0.63333333  1
  O  O12658  1  0.36666667  0.30000000  0.83333333  1
  O  O12659  1  0.36666667  0.50000000  0.03333333  1
  O  O12660  1  0.36666667  0.50000000  0.23333333  1
  O  O12661  1  0.36666667  0.50000000  0.43333333  1
  O  O12662  1  0.36666667  0.50000000  0.63333333  1
  O  O12663  1  0.36666667  0.50000000  0.83333333  1
  O  O12664  1  0.36666667  0.70000000  0.03333333  1
  O  O12665  1  0.36666667  0.70000000  0.23333333  1
  O  O12666  1  0.36666667  0.70000000  0.43333333  1
  O  O12667  1  0.36666667  0.70000000  0.63333333  1
  O  O12668  1  0.36666667  0.70000000  0.83333333  1
  O  O12669  1  0.36666667  0.90000000  0.03333333  1
  O  O12670  1  0.36666667  0.90000000  0.23333333  1
  O  O12671  1  0.36666667  0.90000000  0.43333333  1
  O  O12672  1  0.36666667  0.90000000  0.63333333  1
  O  O12673  1  0.36666667  0.90000000  0.83333333  1
  O  O12674  1  0.56666667  0.10000000  0.03333333  1
  O  O12675  1  0.56666667  0.10000000  0.23333333  1
  O  O12676  1  0.56666667  0.10000000  0.43333333  1
  O  O12677  1  0.56666667  0.10000000  0.63333333  1
  O  O12678  1  0.56666667  0.10000000  0.83333333  1
  O  O12679  1  0.56666667  0.30000000  0.03333333  1
  O  O12680  1  0.56666667  0.30000000  0.23333333  1
  O  O12681  1  0.56666667  0.30000000  0.43333333  1
  O  O12682  1  0.56666667  0.30000000  0.63333333  1
  O  O12683  1  0.56666667  0.30000000  0.83333333  1
  O  O12684  1  0.56666667  0.50000000  0.03333333  1
  O  O12685  1  0.56666667  0.50000000  0.23333333  1
  O  O12686  1  0.56666667  0.50000000  0.43333333  1
  O  O12687  1  0.56666667  0.50000000  0.63333333  1
  O  O12688  1  0.56666667  0.50000000  0.83333333  1
  O  O12689  1  0.56666667  0.70000000  0.03333333  1
  O  O12690  1  0.56666667  0.70000000  0.23333333  1
  O  O12691  1  0.56666667  0.70000000  0.43333333  1
  O  O12692  1  0.56666667  0.70000000  0.63333333  1
  O  O12693  1  0.56666667  0.70000000  0.83333333  1
  O  O12694  1  0.56666667  0.90000000  0.03333333  1
  O  O12695  1  0.56666667  0.90000000  0.23333333  1
  O  O12696  1  0.56666667  0.90000000  0.43333333  1
  O  O12697  1  0.56666667  0.90000000  0.63333333  1
  O  O12698  1  0.56666667  0.90000000  0.83333333  1
  O  O12699  1  0.76666667  0.10000000  0.03333333  1
  O  O12700  1  0.76666667  0.10000000  0.23333333  1
  O  O12701  1  0.76666667  0.10000000  0.43333333  1
  O  O12702  1  0.76666667  0.10000000  0.63333333  1
  O  O12703  1  0.76666667  0.10000000  0.83333333  1
  O  O12704  1  0.76666667  0.30000000  0.03333333  1
  O  O12705  1  0.76666667  0.30000000  0.23333333  1
  O  O12706  1  0.76666667  0.30000000  0.43333333  1
  O  O12707  1  0.76666667  0.30000000  0.63333333  1
  O  O12708  1  0.76666667  0.30000000  0.83333333  1
  O  O12709  1  0.76666667  0.50000000  0.03333333  1
  O  O12710  1  0.76666667  0.50000000  0.23333333  1
  O  O12711  1  0.76666667  0.50000000  0.43333333  1
  O  O12712  1  0.76666667  0.50000000  0.63333333  1
  O  O12713  1  0.76666667  0.50000000  0.83333333  1
  O  O12714  1  0.76666667  0.70000000  0.03333333  1
  O  O12715  1  0.76666667  0.70000000  0.23333333  1
  O  O12716  1  0.76666667  0.70000000  0.43333333  1
  O  O12717  1  0.76666667  0.70000000  0.63333333  1
  O  O12718  1  0.76666667  0.70000000  0.83333333  1
  O  O12719  1  0.76666667  0.90000000  0.03333333  1
  O  O12720  1  0.76666667  0.90000000  0.23333333  1
  O  O12721  1  0.76666667  0.90000000  0.43333333  1
  O  O12722  1  0.76666667  0.90000000  0.63333333  1
  O  O12723  1  0.76666667  0.90000000  0.83333333  1
  O  O12724  1  0.96666667  0.10000000  0.03333333  1
  O  O12725  1  0.96666667  0.10000000  0.23333333  1
  O  O12726  1  0.96666667  0.10000000  0.43333333  1
  O  O12727  1  0.96666667  0.10000000  0.63333333  1
  O  O12728  1  0.96666667  0.10000000  0.83333333  1
  O  O12729  1  0.96666667  0.30000000  0.03333333  1
  O  O12730  1  0.96666667  0.30000000  0.23333333  1
  O  O12731  1  0.96666667  0.30000000  0.43333333  1
  O  O12732  1  0.96666667  0.30000000  0.63333333  1
  O  O12733  1  0.96666667  0.30000000  0.83333333  1
  O  O12734  1  0.96666667  0.50000000  0.03333333  1
  O  O12735  1  0.96666667  0.50000000  0.23333333  1
  O  O12736  1  0.96666667  0.50000000  0.43333333  1
  O  O12737  1  0.96666667  0.50000000  0.63333333  1
  O  O12738  1  0.96666667  0.50000000  0.83333333  1
  O  O12739  1  0.96666667  0.70000000  0.03333333  1
  O  O12740  1  0.96666667  0.70000000  0.23333333  1
  O  O12741  1  0.96666667  0.70000000  0.43333333  1
  O  O12742  1  0.96666667  0.70000000  0.63333333  1
  O  O12743  1  0.96666667  0.70000000  0.83333333  1
  O  O12744  1  0.96666667  0.90000000  0.03333333  1
  O  O12745  1  0.96666667  0.90000000  0.23333333  1
  O  O12746  1  0.96666667  0.90000000  0.43333333  1
  O  O12747  1  0.96666667  0.90000000  0.63333333  1
  O  O12748  1  0.96666667  0.90000000  0.83333333  1
  O  O12749  1  0.16666667  0.10000000  0.10000000  1
  O  O12750  1  0.16666667  0.10000000  0.30000000  1
  O  O12751  1  0.16666667  0.10000000  0.50000000  1
  O  O12752  1  0.16666667  0.10000000  0.70000000  1
  O  O12753  1  0.16666667  0.10000000  0.90000000  1
  O  O12754  1  0.16666667  0.30000000  0.10000000  1
  O  O12755  1  0.16666667  0.30000000  0.30000000  1
  O  O12756  1  0.16666667  0.30000000  0.50000000  1
  O  O12757  1  0.16666667  0.30000000  0.70000000  1
  O  O12758  1  0.16666667  0.30000000  0.90000000  1
  O  O12759  1  0.16666667  0.50000000  0.10000000  1
  O  O12760  1  0.16666667  0.50000000  0.30000000  1
  O  O12761  1  0.16666667  0.50000000  0.50000000  1
  O  O12762  1  0.16666667  0.50000000  0.70000000  1
  O  O12763  1  0.16666667  0.50000000  0.90000000  1
  O  O12764  1  0.16666667  0.70000000  0.10000000  1
  O  O12765  1  0.16666667  0.70000000  0.30000000  1
  O  O12766  1  0.16666667  0.70000000  0.50000000  1
  O  O12767  1  0.16666667  0.70000000  0.70000000  1
  O  O12768  1  0.16666667  0.70000000  0.90000000  1
  O  O12769  1  0.16666667  0.90000000  0.10000000  1
  O  O12770  1  0.16666667  0.90000000  0.30000000  1
  O  O12771  1  0.16666667  0.90000000  0.50000000  1
  O  O12772  1  0.16666667  0.90000000  0.70000000  1
  O  O12773  1  0.16666667  0.90000000  0.90000000  1
  O  O12774  1  0.36666667  0.10000000  0.10000000  1
  O  O12775  1  0.36666667  0.10000000  0.30000000  1
  O  O12776  1  0.36666667  0.10000000  0.50000000  1
  O  O12777  1  0.36666667  0.10000000  0.70000000  1
  O  O12778  1  0.36666667  0.10000000  0.90000000  1
  O  O12779  1  0.36666667  0.30000000  0.10000000  1
  O  O12780  1  0.36666667  0.30000000  0.30000000  1
  O  O12781  1  0.36666667  0.30000000  0.50000000  1
  O  O12782  1  0.36666667  0.30000000  0.70000000  1
  O  O12783  1  0.36666667  0.30000000  0.90000000  1
  O  O12784  1  0.36666667  0.50000000  0.10000000  1
  O  O12785  1  0.36666667  0.50000000  0.30000000  1
  O  O12786  1  0.36666667  0.50000000  0.50000000  1
  O  O12787  1  0.36666667  0.50000000  0.70000000  1
  O  O12788  1  0.36666667  0.50000000  0.90000000  1
  O  O12789  1  0.36666667  0.70000000  0.10000000  1
  O  O12790  1  0.36666667  0.70000000  0.30000000  1
  O  O12791  1  0.36666667  0.70000000  0.50000000  1
  O  O12792  1  0.36666667  0.70000000  0.70000000  1
  O  O12793  1  0.36666667  0.70000000  0.90000000  1
  O  O12794  1  0.36666667  0.90000000  0.10000000  1
  O  O12795  1  0.36666667  0.90000000  0.30000000  1
  O  O12796  1  0.36666667  0.90000000  0.50000000  1
  O  O12797  1  0.36666667  0.90000000  0.70000000  1
  O  O12798  1  0.36666667  0.90000000  0.90000000  1
  O  O12799  1  0.56666667  0.10000000  0.10000000  1
  O  O12800  1  0.56666667  0.10000000  0.30000000  1
  O  O12801  1  0.56666667  0.10000000  0.50000000  1
  O  O12802  1  0.56666667  0.10000000  0.70000000  1
  O  O12803  1  0.56666667  0.10000000  0.90000000  1
  O  O12804  1  0.56666667  0.30000000  0.10000000  1
  O  O12805  1  0.56666667  0.30000000  0.30000000  1
  O  O12806  1  0.56666667  0.30000000  0.50000000  1
  O  O12807  1  0.56666667  0.30000000  0.70000000  1
  O  O12808  1  0.56666667  0.30000000  0.90000000  1
  O  O12809  1  0.56666667  0.50000000  0.10000000  1
  O  O12810  1  0.56666667  0.50000000  0.30000000  1
  O  O12811  1  0.56666667  0.50000000  0.50000000  1
  O  O12812  1  0.56666667  0.50000000  0.70000000  1
  O  O12813  1  0.56666667  0.50000000  0.90000000  1
  O  O12814  1  0.56666667  0.70000000  0.10000000  1
  O  O12815  1  0.56666667  0.70000000  0.30000000  1
  O  O12816  1  0.56666667  0.70000000  0.50000000  1
  O  O12817  1  0.56666667  0.70000000  0.70000000  1
  O  O12818  1  0.56666667  0.70000000  0.90000000  1
  O  O12819  1  0.56666667  0.90000000  0.10000000  1
  O  O12820  1  0.56666667  0.90000000  0.30000000  1
  O  O12821  1  0.56666667  0.90000000  0.50000000  1
  O  O12822  1  0.56666667  0.90000000  0.70000000  1
  O  O12823  1  0.56666667  0.90000000  0.90000000  1
  O  O12824  1  0.76666667  0.10000000  0.10000000  1
  O  O12825  1  0.76666667  0.10000000  0.30000000  1
  O  O12826  1  0.76666667  0.10000000  0.50000000  1
  O  O12827  1  0.76666667  0.10000000  0.70000000  1
  O  O12828  1  0.76666667  0.10000000  0.90000000  1
  O  O12829  1  0.76666667  0.30000000  0.10000000  1
  O  O12830  1  0.76666667  0.30000000  0.30000000  1
  O  O12831  1  0.76666667  0.30000000  0.50000000  1
  O  O12832  1  0.76666667  0.30000000  0.70000000  1
  O  O12833  1  0.76666667  0.30000000  0.90000000  1
  O  O12834  1  0.76666667  0.50000000  0.10000000  1
  O  O12835  1  0.76666667  0.50000000  0.30000000  1
  O  O12836  1  0.76666667  0.50000000  0.50000000  1
  O  O12837  1  0.76666667  0.50000000  0.70000000  1
  O  O12838  1  0.76666667  0.50000000  0.90000000  1
  O  O12839  1  0.76666667  0.70000000  0.10000000  1
  O  O12840  1  0.76666667  0.70000000  0.30000000  1
  O  O12841  1  0.76666667  0.70000000  0.50000000  1
  O  O12842  1  0.76666667  0.70000000  0.70000000  1
  O  O12843  1  0.76666667  0.70000000  0.90000000  1
  O  O12844  1  0.76666667  0.90000000  0.10000000  1
  O  O12845  1  0.76666667  0.90000000  0.30000000  1
  O  O12846  1  0.76666667  0.90000000  0.50000000  1
  O  O12847  1  0.76666667  0.90000000  0.70000000  1
  O  O12848  1  0.76666667  0.90000000  0.90000000  1
  O  O12849  1  0.96666667  0.10000000  0.10000000  1
  O  O12850  1  0.96666667  0.10000000  0.30000000  1
  O  O12851  1  0.96666667  0.10000000  0.50000000  1
  O  O12852  1  0.96666667  0.10000000  0.70000000  1
  O  O12853  1  0.96666667  0.10000000  0.90000000  1
  O  O12854  1  0.96666667  0.30000000  0.10000000  1
  O  O12855  1  0.96666667  0.30000000  0.30000000  1
  O  O12856  1  0.96666667  0.30000000  0.50000000  1
  O  O12857  1  0.96666667  0.30000000  0.70000000  1
  O  O12858  1  0.96666667  0.30000000  0.90000000  1
  O  O12859  1  0.96666667  0.50000000  0.10000000  1
  O  O12860  1  0.96666667  0.50000000  0.30000000  1
  O  O12861  1  0.96666667  0.50000000  0.50000000  1
  O  O12862  1  0.96666667  0.50000000  0.70000000  1
  O  O12863  1  0.96666667  0.50000000  0.90000000  1
  O  O12864  1  0.96666667  0.70000000  0.10000000  1
  O  O12865  1  0.96666667  0.70000000  0.30000000  1
  O  O12866  1  0.96666667  0.70000000  0.50000000  1
  O  O12867  1  0.96666667  0.70000000  0.70000000  1
  O  O12868  1  0.96666667  0.70000000  0.90000000  1
  O  O12869  1  0.96666667  0.90000000  0.10000000  1
  O  O12870  1  0.96666667  0.90000000  0.30000000  1
  O  O12871  1  0.96666667  0.90000000  0.50000000  1
  O  O12872  1  0.96666667  0.90000000  0.70000000  1
  O  O12873  1  0.96666667  0.90000000  0.90000000  1
  O  O12874  1  0.16666667  0.10000000  0.16666667  1
  O  O12875  1  0.16666667  0.10000000  0.36666667  1
  O  O12876  1  0.16666667  0.10000000  0.56666667  1
  O  O12877  1  0.16666667  0.10000000  0.76666667  1
  O  O12878  1  0.16666667  0.10000000  0.96666667  1
  O  O12879  1  0.16666667  0.30000000  0.16666667  1
  O  O12880  1  0.16666667  0.30000000  0.36666667  1
  O  O12881  1  0.16666667  0.30000000  0.56666667  1
  O  O12882  1  0.16666667  0.30000000  0.76666667  1
  O  O12883  1  0.16666667  0.30000000  0.96666667  1
  O  O12884  1  0.16666667  0.50000000  0.16666667  1
  O  O12885  1  0.16666667  0.50000000  0.36666667  1
  O  O12886  1  0.16666667  0.50000000  0.56666667  1
  O  O12887  1  0.16666667  0.50000000  0.76666667  1
  O  O12888  1  0.16666667  0.50000000  0.96666667  1
  O  O12889  1  0.16666667  0.70000000  0.16666667  1
  O  O12890  1  0.16666667  0.70000000  0.36666667  1
  O  O12891  1  0.16666667  0.70000000  0.56666667  1
  O  O12892  1  0.16666667  0.70000000  0.76666667  1
  O  O12893  1  0.16666667  0.70000000  0.96666667  1
  O  O12894  1  0.16666667  0.90000000  0.16666667  1
  O  O12895  1  0.16666667  0.90000000  0.36666667  1
  O  O12896  1  0.16666667  0.90000000  0.56666667  1
  O  O12897  1  0.16666667  0.90000000  0.76666667  1
  O  O12898  1  0.16666667  0.90000000  0.96666667  1
  O  O12899  1  0.36666667  0.10000000  0.16666667  1
  O  O12900  1  0.36666667  0.10000000  0.36666667  1
  O  O12901  1  0.36666667  0.10000000  0.56666667  1
  O  O12902  1  0.36666667  0.10000000  0.76666667  1
  O  O12903  1  0.36666667  0.10000000  0.96666667  1
  O  O12904  1  0.36666667  0.30000000  0.16666667  1
  O  O12905  1  0.36666667  0.30000000  0.36666667  1
  O  O12906  1  0.36666667  0.30000000  0.56666667  1
  O  O12907  1  0.36666667  0.30000000  0.76666667  1
  O  O12908  1  0.36666667  0.30000000  0.96666667  1
  O  O12909  1  0.36666667  0.50000000  0.16666667  1
  O  O12910  1  0.36666667  0.50000000  0.36666667  1
  O  O12911  1  0.36666667  0.50000000  0.56666667  1
  O  O12912  1  0.36666667  0.50000000  0.76666667  1
  O  O12913  1  0.36666667  0.50000000  0.96666667  1
  O  O12914  1  0.36666667  0.70000000  0.16666667  1
  O  O12915  1  0.36666667  0.70000000  0.36666667  1
  O  O12916  1  0.36666667  0.70000000  0.56666667  1
  O  O12917  1  0.36666667  0.70000000  0.76666667  1
  O  O12918  1  0.36666667  0.70000000  0.96666667  1
  O  O12919  1  0.36666667  0.90000000  0.16666667  1
  O  O12920  1  0.36666667  0.90000000  0.36666667  1
  O  O12921  1  0.36666667  0.90000000  0.56666667  1
  O  O12922  1  0.36666667  0.90000000  0.76666667  1
  O  O12923  1  0.36666667  0.90000000  0.96666667  1
  O  O12924  1  0.56666667  0.10000000  0.16666667  1
  O  O12925  1  0.56666667  0.10000000  0.36666667  1
  O  O12926  1  0.56666667  0.10000000  0.56666667  1
  O  O12927  1  0.56666667  0.10000000  0.76666667  1
  O  O12928  1  0.56666667  0.10000000  0.96666667  1
  O  O12929  1  0.56666667  0.30000000  0.16666667  1
  O  O12930  1  0.56666667  0.30000000  0.36666667  1
  O  O12931  1  0.56666667  0.30000000  0.56666667  1
  O  O12932  1  0.56666667  0.30000000  0.76666667  1
  O  O12933  1  0.56666667  0.30000000  0.96666667  1
  O  O12934  1  0.56666667  0.50000000  0.16666667  1
  O  O12935  1  0.56666667  0.50000000  0.36666667  1
  O  O12936  1  0.56666667  0.50000000  0.56666667  1
  O  O12937  1  0.56666667  0.50000000  0.76666667  1
  O  O12938  1  0.56666667  0.50000000  0.96666667  1
  O  O12939  1  0.56666667  0.70000000  0.16666667  1
  O  O12940  1  0.56666667  0.70000000  0.36666667  1
  O  O12941  1  0.56666667  0.70000000  0.56666667  1
  O  O12942  1  0.56666667  0.70000000  0.76666667  1
  O  O12943  1  0.56666667  0.70000000  0.96666667  1
  O  O12944  1  0.56666667  0.90000000  0.16666667  1
  O  O12945  1  0.56666667  0.90000000  0.36666667  1
  O  O12946  1  0.56666667  0.90000000  0.56666667  1
  O  O12947  1  0.56666667  0.90000000  0.76666667  1
  O  O12948  1  0.56666667  0.90000000  0.96666667  1
  O  O12949  1  0.76666667  0.10000000  0.16666667  1
  O  O12950  1  0.76666667  0.10000000  0.36666667  1
  O  O12951  1  0.76666667  0.10000000  0.56666667  1
  O  O12952  1  0.76666667  0.10000000  0.76666667  1
  O  O12953  1  0.76666667  0.10000000  0.96666667  1
  O  O12954  1  0.76666667  0.30000000  0.16666667  1
  O  O12955  1  0.76666667  0.30000000  0.36666667  1
  O  O12956  1  0.76666667  0.30000000  0.56666667  1
  O  O12957  1  0.76666667  0.30000000  0.76666667  1
  O  O12958  1  0.76666667  0.30000000  0.96666667  1
  O  O12959  1  0.76666667  0.50000000  0.16666667  1
  O  O12960  1  0.76666667  0.50000000  0.36666667  1
  O  O12961  1  0.76666667  0.50000000  0.56666667  1
  O  O12962  1  0.76666667  0.50000000  0.76666667  1
  O  O12963  1  0.76666667  0.50000000  0.96666667  1
  O  O12964  1  0.76666667  0.70000000  0.16666667  1
  O  O12965  1  0.76666667  0.70000000  0.36666667  1
  O  O12966  1  0.76666667  0.70000000  0.56666667  1
  O  O12967  1  0.76666667  0.70000000  0.76666667  1
  O  O12968  1  0.76666667  0.70000000  0.96666667  1
  O  O12969  1  0.76666667  0.90000000  0.16666667  1
  O  O12970  1  0.76666667  0.90000000  0.36666667  1
  O  O12971  1  0.76666667  0.90000000  0.56666667  1
  O  O12972  1  0.76666667  0.90000000  0.76666667  1
  O  O12973  1  0.76666667  0.90000000  0.96666667  1
  O  O12974  1  0.96666667  0.10000000  0.16666667  1
  O  O12975  1  0.96666667  0.10000000  0.36666667  1
  O  O12976  1  0.96666667  0.10000000  0.56666667  1
  O  O12977  1  0.96666667  0.10000000  0.76666667  1
  O  O12978  1  0.96666667  0.10000000  0.96666667  1
  O  O12979  1  0.96666667  0.30000000  0.16666667  1
  O  O12980  1  0.96666667  0.30000000  0.36666667  1
  O  O12981  1  0.96666667  0.30000000  0.56666667  1
  O  O12982  1  0.96666667  0.30000000  0.76666667  1
  O  O12983  1  0.96666667  0.30000000  0.96666667  1
  O  O12984  1  0.96666667  0.50000000  0.16666667  1
  O  O12985  1  0.96666667  0.50000000  0.36666667  1
  O  O12986  1  0.96666667  0.50000000  0.56666667  1
  O  O12987  1  0.96666667  0.50000000  0.76666667  1
  O  O12988  1  0.96666667  0.50000000  0.96666667  1
  O  O12989  1  0.96666667  0.70000000  0.16666667  1
  O  O12990  1  0.96666667  0.70000000  0.36666667  1
  O  O12991  1  0.96666667  0.70000000  0.56666667  1
  O  O12992  1  0.96666667  0.70000000  0.76666667  1
  O  O12993  1  0.96666667  0.70000000  0.96666667  1
  O  O12994  1  0.96666667  0.90000000  0.16666667  1
  O  O12995  1  0.96666667  0.90000000  0.36666667  1
  O  O12996  1  0.96666667  0.90000000  0.56666667  1
  O  O12997  1  0.96666667  0.90000000  0.76666667  1
  O  O12998  1  0.96666667  0.90000000  0.96666667  1
  O  O12999  1  0.16666667  0.16666667  0.03333333  1
  O  O13000  1  0.16666667  0.16666667  0.23333333  1
  O  O13001  1  0.16666667  0.16666667  0.43333333  1
  O  O13002  1  0.16666667  0.16666667  0.63333333  1
  O  O13003  1  0.16666667  0.16666667  0.83333333  1
  O  O13004  1  0.16666667  0.36666667  0.03333333  1
  O  O13005  1  0.16666667  0.36666667  0.23333333  1
  O  O13006  1  0.16666667  0.36666667  0.43333333  1
  O  O13007  1  0.16666667  0.36666667  0.63333333  1
  O  O13008  1  0.16666667  0.36666667  0.83333333  1
  O  O13009  1  0.16666667  0.56666667  0.03333333  1
  O  O13010  1  0.16666667  0.56666667  0.23333333  1
  O  O13011  1  0.16666667  0.56666667  0.43333333  1
  O  O13012  1  0.16666667  0.56666667  0.63333333  1
  O  O13013  1  0.16666667  0.56666667  0.83333333  1
  O  O13014  1  0.16666667  0.76666667  0.03333333  1
  O  O13015  1  0.16666667  0.76666667  0.23333333  1
  O  O13016  1  0.16666667  0.76666667  0.43333333  1
  O  O13017  1  0.16666667  0.76666667  0.63333333  1
  O  O13018  1  0.16666667  0.76666667  0.83333333  1
  O  O13019  1  0.16666667  0.96666667  0.03333333  1
  O  O13020  1  0.16666667  0.96666667  0.23333333  1
  O  O13021  1  0.16666667  0.96666667  0.43333333  1
  O  O13022  1  0.16666667  0.96666667  0.63333333  1
  O  O13023  1  0.16666667  0.96666667  0.83333333  1
  O  O13024  1  0.36666667  0.16666667  0.03333333  1
  O  O13025  1  0.36666667  0.16666667  0.23333333  1
  O  O13026  1  0.36666667  0.16666667  0.43333333  1
  O  O13027  1  0.36666667  0.16666667  0.63333333  1
  O  O13028  1  0.36666667  0.16666667  0.83333333  1
  O  O13029  1  0.36666667  0.36666667  0.03333333  1
  O  O13030  1  0.36666667  0.36666667  0.23333333  1
  O  O13031  1  0.36666667  0.36666667  0.43333333  1
  O  O13032  1  0.36666667  0.36666667  0.63333333  1
  O  O13033  1  0.36666667  0.36666667  0.83333333  1
  O  O13034  1  0.36666667  0.56666667  0.03333333  1
  O  O13035  1  0.36666667  0.56666667  0.23333333  1
  O  O13036  1  0.36666667  0.56666667  0.43333333  1
  O  O13037  1  0.36666667  0.56666667  0.63333333  1
  O  O13038  1  0.36666667  0.56666667  0.83333333  1
  O  O13039  1  0.36666667  0.76666667  0.03333333  1
  O  O13040  1  0.36666667  0.76666667  0.23333333  1
  O  O13041  1  0.36666667  0.76666667  0.43333333  1
  O  O13042  1  0.36666667  0.76666667  0.63333333  1
  O  O13043  1  0.36666667  0.76666667  0.83333333  1
  O  O13044  1  0.36666667  0.96666667  0.03333333  1
  O  O13045  1  0.36666667  0.96666667  0.23333333  1
  O  O13046  1  0.36666667  0.96666667  0.43333333  1
  O  O13047  1  0.36666667  0.96666667  0.63333333  1
  O  O13048  1  0.36666667  0.96666667  0.83333333  1
  O  O13049  1  0.56666667  0.16666667  0.03333333  1
  O  O13050  1  0.56666667  0.16666667  0.23333333  1
  O  O13051  1  0.56666667  0.16666667  0.43333333  1
  O  O13052  1  0.56666667  0.16666667  0.63333333  1
  O  O13053  1  0.56666667  0.16666667  0.83333333  1
  O  O13054  1  0.56666667  0.36666667  0.03333333  1
  O  O13055  1  0.56666667  0.36666667  0.23333333  1
  O  O13056  1  0.56666667  0.36666667  0.43333333  1
  O  O13057  1  0.56666667  0.36666667  0.63333333  1
  O  O13058  1  0.56666667  0.36666667  0.83333333  1
  O  O13059  1  0.56666667  0.56666667  0.03333333  1
  O  O13060  1  0.56666667  0.56666667  0.23333333  1
  O  O13061  1  0.56666667  0.56666667  0.43333333  1
  O  O13062  1  0.56666667  0.56666667  0.63333333  1
  O  O13063  1  0.56666667  0.56666667  0.83333333  1
  O  O13064  1  0.56666667  0.76666667  0.03333333  1
  O  O13065  1  0.56666667  0.76666667  0.23333333  1
  O  O13066  1  0.56666667  0.76666667  0.43333333  1
  O  O13067  1  0.56666667  0.76666667  0.63333333  1
  O  O13068  1  0.56666667  0.76666667  0.83333333  1
  O  O13069  1  0.56666667  0.96666667  0.03333333  1
  O  O13070  1  0.56666667  0.96666667  0.23333333  1
  O  O13071  1  0.56666667  0.96666667  0.43333333  1
  O  O13072  1  0.56666667  0.96666667  0.63333333  1
  O  O13073  1  0.56666667  0.96666667  0.83333333  1
  O  O13074  1  0.76666667  0.16666667  0.03333333  1
  O  O13075  1  0.76666667  0.16666667  0.23333333  1
  O  O13076  1  0.76666667  0.16666667  0.43333333  1
  O  O13077  1  0.76666667  0.16666667  0.63333333  1
  O  O13078  1  0.76666667  0.16666667  0.83333333  1
  O  O13079  1  0.76666667  0.36666667  0.03333333  1
  O  O13080  1  0.76666667  0.36666667  0.23333333  1
  O  O13081  1  0.76666667  0.36666667  0.43333333  1
  O  O13082  1  0.76666667  0.36666667  0.63333333  1
  O  O13083  1  0.76666667  0.36666667  0.83333333  1
  O  O13084  1  0.76666667  0.56666667  0.03333333  1
  O  O13085  1  0.76666667  0.56666667  0.23333333  1
  O  O13086  1  0.76666667  0.56666667  0.43333333  1
  O  O13087  1  0.76666667  0.56666667  0.63333333  1
  O  O13088  1  0.76666667  0.56666667  0.83333333  1
  O  O13089  1  0.76666667  0.76666667  0.03333333  1
  O  O13090  1  0.76666667  0.76666667  0.23333333  1
  O  O13091  1  0.76666667  0.76666667  0.43333333  1
  O  O13092  1  0.76666667  0.76666667  0.63333333  1
  O  O13093  1  0.76666667  0.76666667  0.83333333  1
  O  O13094  1  0.76666667  0.96666667  0.03333333  1
  O  O13095  1  0.76666667  0.96666667  0.23333333  1
  O  O13096  1  0.76666667  0.96666667  0.43333333  1
  O  O13097  1  0.76666667  0.96666667  0.63333333  1
  O  O13098  1  0.76666667  0.96666667  0.83333333  1
  O  O13099  1  0.96666667  0.16666667  0.03333333  1
  O  O13100  1  0.96666667  0.16666667  0.23333333  1
  O  O13101  1  0.96666667  0.16666667  0.43333333  1
  O  O13102  1  0.96666667  0.16666667  0.63333333  1
  O  O13103  1  0.96666667  0.16666667  0.83333333  1
  O  O13104  1  0.96666667  0.36666667  0.03333333  1
  O  O13105  1  0.96666667  0.36666667  0.23333333  1
  O  O13106  1  0.96666667  0.36666667  0.43333333  1
  O  O13107  1  0.96666667  0.36666667  0.63333333  1
  O  O13108  1  0.96666667  0.36666667  0.83333333  1
  O  O13109  1  0.96666667  0.56666667  0.03333333  1
  O  O13110  1  0.96666667  0.56666667  0.23333333  1
  O  O13111  1  0.96666667  0.56666667  0.43333333  1
  O  O13112  1  0.96666667  0.56666667  0.63333333  1
  O  O13113  1  0.96666667  0.56666667  0.83333333  1
  O  O13114  1  0.96666667  0.76666667  0.03333333  1
  O  O13115  1  0.96666667  0.76666667  0.23333333  1
  O  O13116  1  0.96666667  0.76666667  0.43333333  1
  O  O13117  1  0.96666667  0.76666667  0.63333333  1
  O  O13118  1  0.96666667  0.76666667  0.83333333  1
  O  O13119  1  0.96666667  0.96666667  0.03333333  1
  O  O13120  1  0.96666667  0.96666667  0.23333333  1
  O  O13121  1  0.96666667  0.96666667  0.43333333  1
  O  O13122  1  0.96666667  0.96666667  0.63333333  1
  O  O13123  1  0.96666667  0.96666667  0.83333333  1
  O  O13124  1  0.16666667  0.16666667  0.10000000  1
  O  O13125  1  0.16666667  0.16666667  0.30000000  1
  O  O13126  1  0.16666667  0.16666667  0.50000000  1
  O  O13127  1  0.16666667  0.16666667  0.70000000  1
  O  O13128  1  0.16666667  0.16666667  0.90000000  1
  O  O13129  1  0.16666667  0.36666667  0.10000000  1
  O  O13130  1  0.16666667  0.36666667  0.30000000  1
  O  O13131  1  0.16666667  0.36666667  0.50000000  1
  O  O13132  1  0.16666667  0.36666667  0.70000000  1
  O  O13133  1  0.16666667  0.36666667  0.90000000  1
  O  O13134  1  0.16666667  0.56666667  0.10000000  1
  O  O13135  1  0.16666667  0.56666667  0.30000000  1
  O  O13136  1  0.16666667  0.56666667  0.50000000  1
  O  O13137  1  0.16666667  0.56666667  0.70000000  1
  O  O13138  1  0.16666667  0.56666667  0.90000000  1
  O  O13139  1  0.16666667  0.76666667  0.10000000  1
  O  O13140  1  0.16666667  0.76666667  0.30000000  1
  O  O13141  1  0.16666667  0.76666667  0.50000000  1
  O  O13142  1  0.16666667  0.76666667  0.70000000  1
  O  O13143  1  0.16666667  0.76666667  0.90000000  1
  O  O13144  1  0.16666667  0.96666667  0.10000000  1
  O  O13145  1  0.16666667  0.96666667  0.30000000  1
  O  O13146  1  0.16666667  0.96666667  0.50000000  1
  O  O13147  1  0.16666667  0.96666667  0.70000000  1
  O  O13148  1  0.16666667  0.96666667  0.90000000  1
  O  O13149  1  0.36666667  0.16666667  0.10000000  1
  O  O13150  1  0.36666667  0.16666667  0.30000000  1
  O  O13151  1  0.36666667  0.16666667  0.50000000  1
  O  O13152  1  0.36666667  0.16666667  0.70000000  1
  O  O13153  1  0.36666667  0.16666667  0.90000000  1
  O  O13154  1  0.36666667  0.36666667  0.10000000  1
  O  O13155  1  0.36666667  0.36666667  0.30000000  1
  O  O13156  1  0.36666667  0.36666667  0.50000000  1
  O  O13157  1  0.36666667  0.36666667  0.70000000  1
  O  O13158  1  0.36666667  0.36666667  0.90000000  1
  O  O13159  1  0.36666667  0.56666667  0.10000000  1
  O  O13160  1  0.36666667  0.56666667  0.30000000  1
  O  O13161  1  0.36666667  0.56666667  0.50000000  1
  O  O13162  1  0.36666667  0.56666667  0.70000000  1
  O  O13163  1  0.36666667  0.56666667  0.90000000  1
  O  O13164  1  0.36666667  0.76666667  0.10000000  1
  O  O13165  1  0.36666667  0.76666667  0.30000000  1
  O  O13166  1  0.36666667  0.76666667  0.50000000  1
  O  O13167  1  0.36666667  0.76666667  0.70000000  1
  O  O13168  1  0.36666667  0.76666667  0.90000000  1
  O  O13169  1  0.36666667  0.96666667  0.10000000  1
  O  O13170  1  0.36666667  0.96666667  0.30000000  1
  O  O13171  1  0.36666667  0.96666667  0.50000000  1
  O  O13172  1  0.36666667  0.96666667  0.70000000  1
  O  O13173  1  0.36666667  0.96666667  0.90000000  1
  O  O13174  1  0.56666667  0.16666667  0.10000000  1
  O  O13175  1  0.56666667  0.16666667  0.30000000  1
  O  O13176  1  0.56666667  0.16666667  0.50000000  1
  O  O13177  1  0.56666667  0.16666667  0.70000000  1
  O  O13178  1  0.56666667  0.16666667  0.90000000  1
  O  O13179  1  0.56666667  0.36666667  0.10000000  1
  O  O13180  1  0.56666667  0.36666667  0.30000000  1
  O  O13181  1  0.56666667  0.36666667  0.50000000  1
  O  O13182  1  0.56666667  0.36666667  0.70000000  1
  O  O13183  1  0.56666667  0.36666667  0.90000000  1
  O  O13184  1  0.56666667  0.56666667  0.10000000  1
  O  O13185  1  0.56666667  0.56666667  0.30000000  1
  O  O13186  1  0.56666667  0.56666667  0.50000000  1
  O  O13187  1  0.56666667  0.56666667  0.70000000  1
  O  O13188  1  0.56666667  0.56666667  0.90000000  1
  O  O13189  1  0.56666667  0.76666667  0.10000000  1
  O  O13190  1  0.56666667  0.76666667  0.30000000  1
  O  O13191  1  0.56666667  0.76666667  0.50000000  1
  O  O13192  1  0.56666667  0.76666667  0.70000000  1
  O  O13193  1  0.56666667  0.76666667  0.90000000  1
  O  O13194  1  0.56666667  0.96666667  0.10000000  1
  O  O13195  1  0.56666667  0.96666667  0.30000000  1
  O  O13196  1  0.56666667  0.96666667  0.50000000  1
  O  O13197  1  0.56666667  0.96666667  0.70000000  1
  O  O13198  1  0.56666667  0.96666667  0.90000000  1
  O  O13199  1  0.76666667  0.16666667  0.10000000  1
  O  O13200  1  0.76666667  0.16666667  0.30000000  1
  O  O13201  1  0.76666667  0.16666667  0.50000000  1
  O  O13202  1  0.76666667  0.16666667  0.70000000  1
  O  O13203  1  0.76666667  0.16666667  0.90000000  1
  O  O13204  1  0.76666667  0.36666667  0.10000000  1
  O  O13205  1  0.76666667  0.36666667  0.30000000  1
  O  O13206  1  0.76666667  0.36666667  0.50000000  1
  O  O13207  1  0.76666667  0.36666667  0.70000000  1
  O  O13208  1  0.76666667  0.36666667  0.90000000  1
  O  O13209  1  0.76666667  0.56666667  0.10000000  1
  O  O13210  1  0.76666667  0.56666667  0.30000000  1
  O  O13211  1  0.76666667  0.56666667  0.50000000  1
  O  O13212  1  0.76666667  0.56666667  0.70000000  1
  O  O13213  1  0.76666667  0.56666667  0.90000000  1
  O  O13214  1  0.76666667  0.76666667  0.10000000  1
  O  O13215  1  0.76666667  0.76666667  0.30000000  1
  O  O13216  1  0.76666667  0.76666667  0.50000000  1
  O  O13217  1  0.76666667  0.76666667  0.70000000  1
  O  O13218  1  0.76666667  0.76666667  0.90000000  1
  O  O13219  1  0.76666667  0.96666667  0.10000000  1
  O  O13220  1  0.76666667  0.96666667  0.30000000  1
  O  O13221  1  0.76666667  0.96666667  0.50000000  1
  O  O13222  1  0.76666667  0.96666667  0.70000000  1
  O  O13223  1  0.76666667  0.96666667  0.90000000  1
  O  O13224  1  0.96666667  0.16666667  0.10000000  1
  O  O13225  1  0.96666667  0.16666667  0.30000000  1
  O  O13226  1  0.96666667  0.16666667  0.50000000  1
  O  O13227  1  0.96666667  0.16666667  0.70000000  1
  O  O13228  1  0.96666667  0.16666667  0.90000000  1
  O  O13229  1  0.96666667  0.36666667  0.10000000  1
  O  O13230  1  0.96666667  0.36666667  0.30000000  1
  O  O13231  1  0.96666667  0.36666667  0.50000000  1
  O  O13232  1  0.96666667  0.36666667  0.70000000  1
  O  O13233  1  0.96666667  0.36666667  0.90000000  1
  O  O13234  1  0.96666667  0.56666667  0.10000000  1
  O  O13235  1  0.96666667  0.56666667  0.30000000  1
  O  O13236  1  0.96666667  0.56666667  0.50000000  1
  O  O13237  1  0.96666667  0.56666667  0.70000000  1
  O  O13238  1  0.96666667  0.56666667  0.90000000  1
  O  O13239  1  0.96666667  0.76666667  0.10000000  1
  O  O13240  1  0.96666667  0.76666667  0.30000000  1
  O  O13241  1  0.96666667  0.76666667  0.50000000  1
  O  O13242  1  0.96666667  0.76666667  0.70000000  1
  O  O13243  1  0.96666667  0.76666667  0.90000000  1
  O  O13244  1  0.96666667  0.96666667  0.10000000  1
  O  O13245  1  0.96666667  0.96666667  0.30000000  1
  O  O13246  1  0.96666667  0.96666667  0.50000000  1
  O  O13247  1  0.96666667  0.96666667  0.70000000  1
  O  O13248  1  0.96666667  0.96666667  0.90000000  1
  O  O13249  1  0.16666667  0.16666667  0.16666667  1
  O  O13250  1  0.16666667  0.16666667  0.36666667  1
  O  O13251  1  0.16666667  0.16666667  0.56666667  1
  O  O13252  1  0.16666667  0.16666667  0.76666667  1
  O  O13253  1  0.16666667  0.16666667  0.96666667  1
  O  O13254  1  0.16666667  0.36666667  0.16666667  1
  O  O13255  1  0.16666667  0.36666667  0.36666667  1
  O  O13256  1  0.16666667  0.36666667  0.56666667  1
  O  O13257  1  0.16666667  0.36666667  0.76666667  1
  O  O13258  1  0.16666667  0.36666667  0.96666667  1
  O  O13259  1  0.16666667  0.56666667  0.16666667  1
  O  O13260  1  0.16666667  0.56666667  0.36666667  1
  O  O13261  1  0.16666667  0.56666667  0.56666667  1
  O  O13262  1  0.16666667  0.56666667  0.76666667  1
  O  O13263  1  0.16666667  0.56666667  0.96666667  1
  O  O13264  1  0.16666667  0.76666667  0.16666667  1
  O  O13265  1  0.16666667  0.76666667  0.36666667  1
  O  O13266  1  0.16666667  0.76666667  0.56666667  1
  O  O13267  1  0.16666667  0.76666667  0.76666667  1
  O  O13268  1  0.16666667  0.76666667  0.96666667  1
  O  O13269  1  0.16666667  0.96666667  0.16666667  1
  O  O13270  1  0.16666667  0.96666667  0.36666667  1
  O  O13271  1  0.16666667  0.96666667  0.56666667  1
  O  O13272  1  0.16666667  0.96666667  0.76666667  1
  O  O13273  1  0.16666667  0.96666667  0.96666667  1
  O  O13274  1  0.36666667  0.16666667  0.16666667  1
  O  O13275  1  0.36666667  0.16666667  0.36666667  1
  O  O13276  1  0.36666667  0.16666667  0.56666667  1
  O  O13277  1  0.36666667  0.16666667  0.76666667  1
  O  O13278  1  0.36666667  0.16666667  0.96666667  1
  O  O13279  1  0.36666667  0.36666667  0.16666667  1
  O  O13280  1  0.36666667  0.36666667  0.36666667  1
  O  O13281  1  0.36666667  0.36666667  0.56666667  1
  O  O13282  1  0.36666667  0.36666667  0.76666667  1
  O  O13283  1  0.36666667  0.36666667  0.96666667  1
  O  O13284  1  0.36666667  0.56666667  0.16666667  1
  O  O13285  1  0.36666667  0.56666667  0.36666667  1
  O  O13286  1  0.36666667  0.56666667  0.56666667  1
  O  O13287  1  0.36666667  0.56666667  0.76666667  1
  O  O13288  1  0.36666667  0.56666667  0.96666667  1
  O  O13289  1  0.36666667  0.76666667  0.16666667  1
  O  O13290  1  0.36666667  0.76666667  0.36666667  1
  O  O13291  1  0.36666667  0.76666667  0.56666667  1
  O  O13292  1  0.36666667  0.76666667  0.76666667  1
  O  O13293  1  0.36666667  0.76666667  0.96666667  1
  O  O13294  1  0.36666667  0.96666667  0.16666667  1
  O  O13295  1  0.36666667  0.96666667  0.36666667  1
  O  O13296  1  0.36666667  0.96666667  0.56666667  1
  O  O13297  1  0.36666667  0.96666667  0.76666667  1
  O  O13298  1  0.36666667  0.96666667  0.96666667  1
  O  O13299  1  0.56666667  0.16666667  0.16666667  1
  O  O13300  1  0.56666667  0.16666667  0.36666667  1
  O  O13301  1  0.56666667  0.16666667  0.56666667  1
  O  O13302  1  0.56666667  0.16666667  0.76666667  1
  O  O13303  1  0.56666667  0.16666667  0.96666667  1
  O  O13304  1  0.56666667  0.36666667  0.16666667  1
  O  O13305  1  0.56666667  0.36666667  0.36666667  1
  O  O13306  1  0.56666667  0.36666667  0.56666667  1
  O  O13307  1  0.56666667  0.36666667  0.76666667  1
  O  O13308  1  0.56666667  0.36666667  0.96666667  1
  O  O13309  1  0.56666667  0.56666667  0.16666667  1
  O  O13310  1  0.56666667  0.56666667  0.36666667  1
  O  O13311  1  0.56666667  0.56666667  0.56666667  1
  O  O13312  1  0.56666667  0.56666667  0.76666667  1
  O  O13313  1  0.56666667  0.56666667  0.96666667  1
  O  O13314  1  0.56666667  0.76666667  0.16666667  1
  O  O13315  1  0.56666667  0.76666667  0.36666667  1
  O  O13316  1  0.56666667  0.76666667  0.56666667  1
  O  O13317  1  0.56666667  0.76666667  0.76666667  1
  O  O13318  1  0.56666667  0.76666667  0.96666667  1
  O  O13319  1  0.56666667  0.96666667  0.16666667  1
  O  O13320  1  0.56666667  0.96666667  0.36666667  1
  O  O13321  1  0.56666667  0.96666667  0.56666667  1
  O  O13322  1  0.56666667  0.96666667  0.76666667  1
  O  O13323  1  0.56666667  0.96666667  0.96666667  1
  O  O13324  1  0.76666667  0.16666667  0.16666667  1
  O  O13325  1  0.76666667  0.16666667  0.36666667  1
  O  O13326  1  0.76666667  0.16666667  0.56666667  1
  O  O13327  1  0.76666667  0.16666667  0.76666667  1
  O  O13328  1  0.76666667  0.16666667  0.96666667  1
  O  O13329  1  0.76666667  0.36666667  0.16666667  1
  O  O13330  1  0.76666667  0.36666667  0.36666667  1
  O  O13331  1  0.76666667  0.36666667  0.56666667  1
  O  O13332  1  0.76666667  0.36666667  0.76666667  1
  O  O13333  1  0.76666667  0.36666667  0.96666667  1
  O  O13334  1  0.76666667  0.56666667  0.16666667  1
  O  O13335  1  0.76666667  0.56666667  0.36666667  1
  O  O13336  1  0.76666667  0.56666667  0.56666667  1
  O  O13337  1  0.76666667  0.56666667  0.76666667  1
  O  O13338  1  0.76666667  0.56666667  0.96666667  1
  O  O13339  1  0.76666667  0.76666667  0.16666667  1
  O  O13340  1  0.76666667  0.76666667  0.36666667  1
  O  O13341  1  0.76666667  0.76666667  0.56666667  1
  O  O13342  1  0.76666667  0.76666667  0.76666667  1
  O  O13343  1  0.76666667  0.76666667  0.96666667  1
  O  O13344  1  0.76666667  0.96666667  0.16666667  1
  O  O13345  1  0.76666667  0.96666667  0.36666667  1
  O  O13346  1  0.76666667  0.96666667  0.56666667  1
  O  O13347  1  0.76666667  0.96666667  0.76666667  1
  O  O13348  1  0.76666667  0.96666667  0.96666667  1
  O  O13349  1  0.96666667  0.16666667  0.16666667  1
  O  O13350  1  0.96666667  0.16666667  0.36666667  1
  O  O13351  1  0.96666667  0.16666667  0.56666667  1
  O  O13352  1  0.96666667  0.16666667  0.76666667  1
  O  O13353  1  0.96666667  0.16666667  0.96666667  1
  O  O13354  1  0.96666667  0.36666667  0.16666667  1
  O  O13355  1  0.96666667  0.36666667  0.36666667  1
  O  O13356  1  0.96666667  0.36666667  0.56666667  1
  O  O13357  1  0.96666667  0.36666667  0.76666667  1
  O  O13358  1  0.96666667  0.36666667  0.96666667  1
  O  O13359  1  0.96666667  0.56666667  0.16666667  1
  O  O13360  1  0.96666667  0.56666667  0.36666667  1
  O  O13361  1  0.96666667  0.56666667  0.56666667  1
  O  O13362  1  0.96666667  0.56666667  0.76666667  1
  O  O13363  1  0.96666667  0.56666667  0.96666667  1
  O  O13364  1  0.96666667  0.76666667  0.16666667  1
  O  O13365  1  0.96666667  0.76666667  0.36666667  1
  O  O13366  1  0.96666667  0.76666667  0.56666667  1
  O  O13367  1  0.96666667  0.76666667  0.76666667  1
  O  O13368  1  0.96666667  0.76666667  0.96666667  1
  O  O13369  1  0.96666667  0.96666667  0.16666667  1
  O  O13370  1  0.96666667  0.96666667  0.36666667  1
  O  O13371  1  0.96666667  0.96666667  0.56666667  1
  O  O13372  1  0.96666667  0.96666667  0.76666667  1
  O  O13373  1  0.96666667  0.96666667  0.96666667  1
  Cl  Cl13374  1  0.00000000  0.00000000  0.00000000  1
  Cl  Cl13375  1  0.00000000  0.00000000  0.20000000  1
  Cl  Cl13376  1  0.00000000  0.00000000  0.40000000  1
  Cl  Cl13377  1  0.00000000  0.00000000  0.60000000  1
  Cl  Cl13378  1  0.00000000  0.00000000  0.80000000  1
  Cl  Cl13379  1  0.00000000  0.20000000  0.00000000  1
  Cl  Cl13380  1  0.00000000  0.20000000  0.20000000  1
  Cl  Cl13381  1  0.00000000  0.20000000  0.40000000  1
  Cl  Cl13382  1  0.00000000  0.20000000  0.60000000  1
  Cl  Cl13383  1  0.00000000  0.20000000  0.80000000  1
  Cl  Cl13384  1  0.00000000  0.40000000  0.00000000  1
  Cl  Cl13385  1  0.00000000  0.40000000  0.20000000  1
  Cl  Cl13386  1  0.00000000  0.40000000  0.40000000  1
  Cl  Cl13387  1  0.00000000  0.40000000  0.60000000  1
  Cl  Cl13388  1  0.00000000  0.40000000  0.80000000  1
  Cl  Cl13389  1  0.00000000  0.60000000  0.00000000  1
  Cl  Cl13390  1  0.00000000  0.60000000  0.20000000  1
  Cl  Cl13391  1  0.00000000  0.60000000  0.40000000  1
  Cl  Cl13392  1  0.00000000  0.60000000  0.60000000  1
  Cl  Cl13393  1  0.00000000  0.60000000  0.80000000  1
  Cl  Cl13394  1  0.00000000  0.80000000  0.00000000  1
  Cl  Cl13395  1  0.00000000  0.80000000  0.20000000  1
  Cl  Cl13396  1  0.00000000  0.80000000  0.40000000  1
  Cl  Cl13397  1  0.00000000  0.80000000  0.60000000  1
  Cl  Cl13398  1  0.00000000  0.80000000  0.80000000  1
  Cl  Cl13399  1  0.20000000  0.00000000  0.00000000  1
  Cl  Cl13400  1  0.20000000  0.00000000  0.20000000  1
  Cl  Cl13401  1  0.20000000  0.00000000  0.40000000  1
  Cl  Cl13402  1  0.20000000  0.00000000  0.60000000  1
  Cl  Cl13403  1  0.20000000  0.00000000  0.80000000  1
  Cl  Cl13404  1  0.20000000  0.20000000  0.00000000  1
  Cl  Cl13405  1  0.20000000  0.20000000  0.20000000  1
  Cl  Cl13406  1  0.20000000  0.20000000  0.40000000  1
  Cl  Cl13407  1  0.20000000  0.20000000  0.60000000  1
  Cl  Cl13408  1  0.20000000  0.20000000  0.80000000  1
  Cl  Cl13409  1  0.20000000  0.40000000  0.00000000  1
  Cl  Cl13410  1  0.20000000  0.40000000  0.20000000  1
  Cl  Cl13411  1  0.20000000  0.40000000  0.40000000  1
  Cl  Cl13412  1  0.20000000  0.40000000  0.60000000  1
  Cl  Cl13413  1  0.20000000  0.40000000  0.80000000  1
  Cl  Cl13414  1  0.20000000  0.60000000  0.00000000  1
  Cl  Cl13415  1  0.20000000  0.60000000  0.20000000  1
  Cl  Cl13416  1  0.20000000  0.60000000  0.40000000  1
  Cl  Cl13417  1  0.20000000  0.60000000  0.60000000  1
  Cl  Cl13418  1  0.20000000  0.60000000  0.80000000  1
  Cl  Cl13419  1  0.20000000  0.80000000  0.00000000  1
  Cl  Cl13420  1  0.20000000  0.80000000  0.20000000  1
  Cl  Cl13421  1  0.20000000  0.80000000  0.40000000  1
  Cl  Cl13422  1  0.20000000  0.80000000  0.60000000  1
  Cl  Cl13423  1  0.20000000  0.80000000  0.80000000  1
  Cl  Cl13424  1  0.40000000  0.00000000  0.00000000  1
  Cl  Cl13425  1  0.40000000  0.00000000  0.20000000  1
  Cl  Cl13426  1  0.40000000  0.00000000  0.40000000  1
  Cl  Cl13427  1  0.40000000  0.00000000  0.60000000  1
  Cl  Cl13428  1  0.40000000  0.00000000  0.80000000  1
  Cl  Cl13429  1  0.40000000  0.20000000  0.00000000  1
  Cl  Cl13430  1  0.40000000  0.20000000  0.20000000  1
  Cl  Cl13431  1  0.40000000  0.20000000  0.40000000  1
  Cl  Cl13432  1  0.40000000  0.20000000  0.60000000  1
  Cl  Cl13433  1  0.40000000  0.20000000  0.80000000  1
  Cl  Cl13434  1  0.40000000  0.40000000  0.00000000  1
  Cl  Cl13435  1  0.40000000  0.40000000  0.20000000  1
  Cl  Cl13436  1  0.40000000  0.40000000  0.40000000  1
  Cl  Cl13437  1  0.40000000  0.40000000  0.60000000  1
  Cl  Cl13438  1  0.40000000  0.40000000  0.80000000  1
  Cl  Cl13439  1  0.40000000  0.60000000  0.00000000  1
  Cl  Cl13440  1  0.40000000  0.60000000  0.20000000  1
  Cl  Cl13441  1  0.40000000  0.60000000  0.40000000  1
  Cl  Cl13442  1  0.40000000  0.60000000  0.60000000  1
  Cl  Cl13443  1  0.40000000  0.60000000  0.80000000  1
  Cl  Cl13444  1  0.40000000  0.80000000  0.00000000  1
  Cl  Cl13445  1  0.40000000  0.80000000  0.20000000  1
  Cl  Cl13446  1  0.40000000  0.80000000  0.40000000  1
  Cl  Cl13447  1  0.40000000  0.80000000  0.60000000  1
  Cl  Cl13448  1  0.40000000  0.80000000  0.80000000  1
  Cl  Cl13449  1  0.60000000  0.00000000  0.00000000  1
  Cl  Cl13450  1  0.60000000  0.00000000  0.20000000  1
  Cl  Cl13451  1  0.60000000  0.00000000  0.40000000  1
  Cl  Cl13452  1  0.60000000  0.00000000  0.60000000  1
  Cl  Cl13453  1  0.60000000  0.00000000  0.80000000  1
  Cl  Cl13454  1  0.60000000  0.20000000  0.00000000  1
  Cl  Cl13455  1  0.60000000  0.20000000  0.20000000  1
  Cl  Cl13456  1  0.60000000  0.20000000  0.40000000  1
  Cl  Cl13457  1  0.60000000  0.20000000  0.60000000  1
  Cl  Cl13458  1  0.60000000  0.20000000  0.80000000  1
  Cl  Cl13459  1  0.60000000  0.40000000  0.00000000  1
  Cl  Cl13460  1  0.60000000  0.40000000  0.20000000  1
  Cl  Cl13461  1  0.60000000  0.40000000  0.40000000  1
  Cl  Cl13462  1  0.60000000  0.40000000  0.60000000  1
  Cl  Cl13463  1  0.60000000  0.40000000  0.80000000  1
  Cl  Cl13464  1  0.60000000  0.60000000  0.00000000  1
  Cl  Cl13465  1  0.60000000  0.60000000  0.20000000  1
  Cl  Cl13466  1  0.60000000  0.60000000  0.40000000  1
  Cl  Cl13467  1  0.60000000  0.60000000  0.60000000  1
  Cl  Cl13468  1  0.60000000  0.60000000  0.80000000  1
  Cl  Cl13469  1  0.60000000  0.80000000  0.00000000  1
  Cl  Cl13470  1  0.60000000  0.80000000  0.20000000  1
  Cl  Cl13471  1  0.60000000  0.80000000  0.40000000  1
  Cl  Cl13472  1  0.60000000  0.80000000  0.60000000  1
  Cl  Cl13473  1  0.60000000  0.80000000  0.80000000  1
  Cl  Cl13474  1  0.80000000  0.00000000  0.00000000  1
  Cl  Cl13475  1  0.80000000  0.00000000  0.20000000  1
  Cl  Cl13476  1  0.80000000  0.00000000  0.40000000  1
  Cl  Cl13477  1  0.80000000  0.00000000  0.60000000  1
  Cl  Cl13478  1  0.80000000  0.00000000  0.80000000  1
  Cl  Cl13479  1  0.80000000  0.20000000  0.00000000  1
  Cl  Cl13480  1  0.80000000  0.20000000  0.20000000  1
  Cl  Cl13481  1  0.80000000  0.20000000  0.40000000  1
  Cl  Cl13482  1  0.80000000  0.20000000  0.60000000  1
  Cl  Cl13483  1  0.80000000  0.20000000  0.80000000  1
  Cl  Cl13484  1  0.80000000  0.40000000  0.00000000  1
  Cl  Cl13485  1  0.80000000  0.40000000  0.20000000  1
  Cl  Cl13486  1  0.80000000  0.40000000  0.40000000  1
  Cl  Cl13487  1  0.80000000  0.40000000  0.60000000  1
  Cl  Cl13488  1  0.80000000  0.40000000  0.80000000  1
  Cl  Cl13489  1  0.80000000  0.60000000  0.00000000  1
  Cl  Cl13490  1  0.80000000  0.60000000  0.20000000  1
  Cl  Cl13491  1  0.80000000  0.60000000  0.40000000  1
  Cl  Cl13492  1  0.80000000  0.60000000  0.60000000  1
  Cl  Cl13493  1  0.80000000  0.60000000  0.80000000  1
  Cl  Cl13494  1  0.80000000  0.80000000  0.00000000  1
  Cl  Cl13495  1  0.80000000  0.80000000  0.20000000  1
  Cl  Cl13496  1  0.80000000  0.80000000  0.40000000  1
  Cl  Cl13497  1  0.80000000  0.80000000  0.60000000  1
  Cl  Cl13498  1  0.80000000  0.80000000  0.80000000  1
  Cl  Cl13499  1  0.00000000  0.00000000  0.06666667  1
  Cl  Cl13500  1  0.00000000  0.00000000  0.26666667  1
  Cl  Cl13501  1  0.00000000  0.00000000  0.46666667  1
  Cl  Cl13502  1  0.00000000  0.00000000  0.66666667  1
  Cl  Cl13503  1  0.00000000  0.00000000  0.86666667  1
  Cl  Cl13504  1  0.00000000  0.20000000  0.06666667  1
  Cl  Cl13505  1  0.00000000  0.20000000  0.26666667  1
  Cl  Cl13506  1  0.00000000  0.20000000  0.46666667  1
  Cl  Cl13507  1  0.00000000  0.20000000  0.66666667  1
  Cl  Cl13508  1  0.00000000  0.20000000  0.86666667  1
  Cl  Cl13509  1  0.00000000  0.40000000  0.06666667  1
  Cl  Cl13510  1  0.00000000  0.40000000  0.26666667  1
  Cl  Cl13511  1  0.00000000  0.40000000  0.46666667  1
  Cl  Cl13512  1  0.00000000  0.40000000  0.66666667  1
  Cl  Cl13513  1  0.00000000  0.40000000  0.86666667  1
  Cl  Cl13514  1  0.00000000  0.60000000  0.06666667  1
  Cl  Cl13515  1  0.00000000  0.60000000  0.26666667  1
  Cl  Cl13516  1  0.00000000  0.60000000  0.46666667  1
  Cl  Cl13517  1  0.00000000  0.60000000  0.66666667  1
  Cl  Cl13518  1  0.00000000  0.60000000  0.86666667  1
  Cl  Cl13519  1  0.00000000  0.80000000  0.06666667  1
  Cl  Cl13520  1  0.00000000  0.80000000  0.26666667  1
  Cl  Cl13521  1  0.00000000  0.80000000  0.46666667  1
  Cl  Cl13522  1  0.00000000  0.80000000  0.66666667  1
  Cl  Cl13523  1  0.00000000  0.80000000  0.86666667  1
  Cl  Cl13524  1  0.20000000  0.00000000  0.06666667  1
  Cl  Cl13525  1  0.20000000  0.00000000  0.26666667  1
  Cl  Cl13526  1  0.20000000  0.00000000  0.46666667  1
  Cl  Cl13527  1  0.20000000  0.00000000  0.66666667  1
  Cl  Cl13528  1  0.20000000  0.00000000  0.86666667  1
  Cl  Cl13529  1  0.20000000  0.20000000  0.06666667  1
  Cl  Cl13530  1  0.20000000  0.20000000  0.26666667  1
  Cl  Cl13531  1  0.20000000  0.20000000  0.46666667  1
  Cl  Cl13532  1  0.20000000  0.20000000  0.66666667  1
  Cl  Cl13533  1  0.20000000  0.20000000  0.86666667  1
  Cl  Cl13534  1  0.20000000  0.40000000  0.06666667  1
  Cl  Cl13535  1  0.20000000  0.40000000  0.26666667  1
  Cl  Cl13536  1  0.20000000  0.40000000  0.46666667  1
  Cl  Cl13537  1  0.20000000  0.40000000  0.66666667  1
  Cl  Cl13538  1  0.20000000  0.40000000  0.86666667  1
  Cl  Cl13539  1  0.20000000  0.60000000  0.06666667  1
  Cl  Cl13540  1  0.20000000  0.60000000  0.26666667  1
  Cl  Cl13541  1  0.20000000  0.60000000  0.46666667  1
  Cl  Cl13542  1  0.20000000  0.60000000  0.66666667  1
  Cl  Cl13543  1  0.20000000  0.60000000  0.86666667  1
  Cl  Cl13544  1  0.20000000  0.80000000  0.06666667  1
  Cl  Cl13545  1  0.20000000  0.80000000  0.26666667  1
  Cl  Cl13546  1  0.20000000  0.80000000  0.46666667  1
  Cl  Cl13547  1  0.20000000  0.80000000  0.66666667  1
  Cl  Cl13548  1  0.20000000  0.80000000  0.86666667  1
  Cl  Cl13549  1  0.40000000  0.00000000  0.06666667  1
  Cl  Cl13550  1  0.40000000  0.00000000  0.26666667  1
  Cl  Cl13551  1  0.40000000  0.00000000  0.46666667  1
  Cl  Cl13552  1  0.40000000  0.00000000  0.66666667  1
  Cl  Cl13553  1  0.40000000  0.00000000  0.86666667  1
  Cl  Cl13554  1  0.40000000  0.20000000  0.06666667  1
  Cl  Cl13555  1  0.40000000  0.20000000  0.26666667  1
  Cl  Cl13556  1  0.40000000  0.20000000  0.46666667  1
  Cl  Cl13557  1  0.40000000  0.20000000  0.66666667  1
  Cl  Cl13558  1  0.40000000  0.20000000  0.86666667  1
  Cl  Cl13559  1  0.40000000  0.40000000  0.06666667  1
  Cl  Cl13560  1  0.40000000  0.40000000  0.26666667  1
  Cl  Cl13561  1  0.40000000  0.40000000  0.46666667  1
  Cl  Cl13562  1  0.40000000  0.40000000  0.66666667  1
  Cl  Cl13563  1  0.40000000  0.40000000  0.86666667  1
  Cl  Cl13564  1  0.40000000  0.60000000  0.06666667  1
  Cl  Cl13565  1  0.40000000  0.60000000  0.26666667  1
  Cl  Cl13566  1  0.40000000  0.60000000  0.46666667  1
  Cl  Cl13567  1  0.40000000  0.60000000  0.66666667  1
  Cl  Cl13568  1  0.40000000  0.60000000  0.86666667  1
  Cl  Cl13569  1  0.40000000  0.80000000  0.06666667  1
  Cl  Cl13570  1  0.40000000  0.80000000  0.26666667  1
  Cl  Cl13571  1  0.40000000  0.80000000  0.46666667  1
  Cl  Cl13572  1  0.40000000  0.80000000  0.66666667  1
  Cl  Cl13573  1  0.40000000  0.80000000  0.86666667  1
  Cl  Cl13574  1  0.60000000  0.00000000  0.06666667  1
  Cl  Cl13575  1  0.60000000  0.00000000  0.26666667  1
  Cl  Cl13576  1  0.60000000  0.00000000  0.46666667  1
  Cl  Cl13577  1  0.60000000  0.00000000  0.66666667  1
  Cl  Cl13578  1  0.60000000  0.00000000  0.86666667  1
  Cl  Cl13579  1  0.60000000  0.20000000  0.06666667  1
  Cl  Cl13580  1  0.60000000  0.20000000  0.26666667  1
  Cl  Cl13581  1  0.60000000  0.20000000  0.46666667  1
  Cl  Cl13582  1  0.60000000  0.20000000  0.66666667  1
  Cl  Cl13583  1  0.60000000  0.20000000  0.86666667  1
  Cl  Cl13584  1  0.60000000  0.40000000  0.06666667  1
  Cl  Cl13585  1  0.60000000  0.40000000  0.26666667  1
  Cl  Cl13586  1  0.60000000  0.40000000  0.46666667  1
  Cl  Cl13587  1  0.60000000  0.40000000  0.66666667  1
  Cl  Cl13588  1  0.60000000  0.40000000  0.86666667  1
  Cl  Cl13589  1  0.60000000  0.60000000  0.06666667  1
  Cl  Cl13590  1  0.60000000  0.60000000  0.26666667  1
  Cl  Cl13591  1  0.60000000  0.60000000  0.46666667  1
  Cl  Cl13592  1  0.60000000  0.60000000  0.66666667  1
  Cl  Cl13593  1  0.60000000  0.60000000  0.86666667  1
  Cl  Cl13594  1  0.60000000  0.80000000  0.06666667  1
  Cl  Cl13595  1  0.60000000  0.80000000  0.26666667  1
  Cl  Cl13596  1  0.60000000  0.80000000  0.46666667  1
  Cl  Cl13597  1  0.60000000  0.80000000  0.66666667  1
  Cl  Cl13598  1  0.60000000  0.80000000  0.86666667  1
  Cl  Cl13599  1  0.80000000  0.00000000  0.06666667  1
  Cl  Cl13600  1  0.80000000  0.00000000  0.26666667  1
  Cl  Cl13601  1  0.80000000  0.00000000  0.46666667  1
  Cl  Cl13602  1  0.80000000  0.00000000  0.66666667  1
  Cl  Cl13603  1  0.80000000  0.00000000  0.86666667  1
  Cl  Cl13604  1  0.80000000  0.20000000  0.06666667  1
  Cl  Cl13605  1  0.80000000  0.20000000  0.26666667  1
  Cl  Cl13606  1  0.80000000  0.20000000  0.46666667  1
  Cl  Cl13607  1  0.80000000  0.20000000  0.66666667  1
  Cl  Cl13608  1  0.80000000  0.20000000  0.86666667  1
  Cl  Cl13609  1  0.80000000  0.40000000  0.06666667  1
  Cl  Cl13610  1  0.80000000  0.40000000  0.26666667  1
  Cl  Cl13611  1  0.80000000  0.40000000  0.46666667  1
  Cl  Cl13612  1  0.80000000  0.40000000  0.66666667  1
  Cl  Cl13613  1  0.80000000  0.40000000  0.86666667  1
  Cl  Cl13614  1  0.80000000  0.60000000  0.06666667  1
  Cl  Cl13615  1  0.80000000  0.60000000  0.26666667  1
  Cl  Cl13616  1  0.80000000  0.60000000  0.46666667  1
  Cl  Cl13617  1  0.80000000  0.60000000  0.66666667  1
  Cl  Cl13618  1  0.80000000  0.60000000  0.86666667  1
  Cl  Cl13619  1  0.80000000  0.80000000  0.06666667  1
  Cl  Cl13620  1  0.80000000  0.80000000  0.26666667  1
  Cl  Cl13621  1  0.80000000  0.80000000  0.46666667  1
  Cl  Cl13622  1  0.80000000  0.80000000  0.66666667  1
  Cl  Cl13623  1  0.80000000  0.80000000  0.86666667  1
  Cl  Cl13624  1  0.00000000  0.00000000  0.13333333  1
  Cl  Cl13625  1  0.00000000  0.00000000  0.33333333  1
  Cl  Cl13626  1  0.00000000  0.00000000  0.53333333  1
  Cl  Cl13627  1  0.00000000  0.00000000  0.73333333  1
  Cl  Cl13628  1  0.00000000  0.00000000  0.93333333  1
  Cl  Cl13629  1  0.00000000  0.20000000  0.13333333  1
  Cl  Cl13630  1  0.00000000  0.20000000  0.33333333  1
  Cl  Cl13631  1  0.00000000  0.20000000  0.53333333  1
  Cl  Cl13632  1  0.00000000  0.20000000  0.73333333  1
  Cl  Cl13633  1  0.00000000  0.20000000  0.93333333  1
  Cl  Cl13634  1  0.00000000  0.40000000  0.13333333  1
  Cl  Cl13635  1  0.00000000  0.40000000  0.33333333  1
  Cl  Cl13636  1  0.00000000  0.40000000  0.53333333  1
  Cl  Cl13637  1  0.00000000  0.40000000  0.73333333  1
  Cl  Cl13638  1  0.00000000  0.40000000  0.93333333  1
  Cl  Cl13639  1  0.00000000  0.60000000  0.13333333  1
  Cl  Cl13640  1  0.00000000  0.60000000  0.33333333  1
  Cl  Cl13641  1  0.00000000  0.60000000  0.53333333  1
  Cl  Cl13642  1  0.00000000  0.60000000  0.73333333  1
  Cl  Cl13643  1  0.00000000  0.60000000  0.93333333  1
  Cl  Cl13644  1  0.00000000  0.80000000  0.13333333  1
  Cl  Cl13645  1  0.00000000  0.80000000  0.33333333  1
  Cl  Cl13646  1  0.00000000  0.80000000  0.53333333  1
  Cl  Cl13647  1  0.00000000  0.80000000  0.73333333  1
  Cl  Cl13648  1  0.00000000  0.80000000  0.93333333  1
  Cl  Cl13649  1  0.20000000  0.00000000  0.13333333  1
  Cl  Cl13650  1  0.20000000  0.00000000  0.33333333  1
  Cl  Cl13651  1  0.20000000  0.00000000  0.53333333  1
  Cl  Cl13652  1  0.20000000  0.00000000  0.73333333  1
  Cl  Cl13653  1  0.20000000  0.00000000  0.93333333  1
  Cl  Cl13654  1  0.20000000  0.20000000  0.13333333  1
  Cl  Cl13655  1  0.20000000  0.20000000  0.33333333  1
  Cl  Cl13656  1  0.20000000  0.20000000  0.53333333  1
  Cl  Cl13657  1  0.20000000  0.20000000  0.73333333  1
  Cl  Cl13658  1  0.20000000  0.20000000  0.93333333  1
  Cl  Cl13659  1  0.20000000  0.40000000  0.13333333  1
  Cl  Cl13660  1  0.20000000  0.40000000  0.33333333  1
  Cl  Cl13661  1  0.20000000  0.40000000  0.53333333  1
  Cl  Cl13662  1  0.20000000  0.40000000  0.73333333  1
  Cl  Cl13663  1  0.20000000  0.40000000  0.93333333  1
  Cl  Cl13664  1  0.20000000  0.60000000  0.13333333  1
  Cl  Cl13665  1  0.20000000  0.60000000  0.33333333  1
  Cl  Cl13666  1  0.20000000  0.60000000  0.53333333  1
  Cl  Cl13667  1  0.20000000  0.60000000  0.73333333  1
  Cl  Cl13668  1  0.20000000  0.60000000  0.93333333  1
  Cl  Cl13669  1  0.20000000  0.80000000  0.13333333  1
  Cl  Cl13670  1  0.20000000  0.80000000  0.33333333  1
  Cl  Cl13671  1  0.20000000  0.80000000  0.53333333  1
  Cl  Cl13672  1  0.20000000  0.80000000  0.73333333  1
  Cl  Cl13673  1  0.20000000  0.80000000  0.93333333  1
  Cl  Cl13674  1  0.40000000  0.00000000  0.13333333  1
  Cl  Cl13675  1  0.40000000  0.00000000  0.33333333  1
  Cl  Cl13676  1  0.40000000  0.00000000  0.53333333  1
  Cl  Cl13677  1  0.40000000  0.00000000  0.73333333  1
  Cl  Cl13678  1  0.40000000  0.00000000  0.93333333  1
  Cl  Cl13679  1  0.40000000  0.20000000  0.13333333  1
  Cl  Cl13680  1  0.40000000  0.20000000  0.33333333  1
  Cl  Cl13681  1  0.40000000  0.20000000  0.53333333  1
  Cl  Cl13682  1  0.40000000  0.20000000  0.73333333  1
  Cl  Cl13683  1  0.40000000  0.20000000  0.93333333  1
  Cl  Cl13684  1  0.40000000  0.40000000  0.13333333  1
  Cl  Cl13685  1  0.40000000  0.40000000  0.33333333  1
  Cl  Cl13686  1  0.40000000  0.40000000  0.53333333  1
  Cl  Cl13687  1  0.40000000  0.40000000  0.73333333  1
  Cl  Cl13688  1  0.40000000  0.40000000  0.93333333  1
  Cl  Cl13689  1  0.40000000  0.60000000  0.13333333  1
  Cl  Cl13690  1  0.40000000  0.60000000  0.33333333  1
  Cl  Cl13691  1  0.40000000  0.60000000  0.53333333  1
  Cl  Cl13692  1  0.40000000  0.60000000  0.73333333  1
  Cl  Cl13693  1  0.40000000  0.60000000  0.93333333  1
  Cl  Cl13694  1  0.40000000  0.80000000  0.13333333  1
  Cl  Cl13695  1  0.40000000  0.80000000  0.33333333  1
  Cl  Cl13696  1  0.40000000  0.80000000  0.53333333  1
  Cl  Cl13697  1  0.40000000  0.80000000  0.73333333  1
  Cl  Cl13698  1  0.40000000  0.80000000  0.93333333  1
  Cl  Cl13699  1  0.60000000  0.00000000  0.13333333  1
  Cl  Cl13700  1  0.60000000  0.00000000  0.33333333  1
  Cl  Cl13701  1  0.60000000  0.00000000  0.53333333  1
  Cl  Cl13702  1  0.60000000  0.00000000  0.73333333  1
  Cl  Cl13703  1  0.60000000  0.00000000  0.93333333  1
  Cl  Cl13704  1  0.60000000  0.20000000  0.13333333  1
  Cl  Cl13705  1  0.60000000  0.20000000  0.33333333  1
  Cl  Cl13706  1  0.60000000  0.20000000  0.53333333  1
  Cl  Cl13707  1  0.60000000  0.20000000  0.73333333  1
  Cl  Cl13708  1  0.60000000  0.20000000  0.93333333  1
  Cl  Cl13709  1  0.60000000  0.40000000  0.13333333  1
  Cl  Cl13710  1  0.60000000  0.40000000  0.33333333  1
  Cl  Cl13711  1  0.60000000  0.40000000  0.53333333  1
  Cl  Cl13712  1  0.60000000  0.40000000  0.73333333  1
  Cl  Cl13713  1  0.60000000  0.40000000  0.93333333  1
  Cl  Cl13714  1  0.60000000  0.60000000  0.13333333  1
  Cl  Cl13715  1  0.60000000  0.60000000  0.33333333  1
  Cl  Cl13716  1  0.60000000  0.60000000  0.53333333  1
  Cl  Cl13717  1  0.60000000  0.60000000  0.73333333  1
  Cl  Cl13718  1  0.60000000  0.60000000  0.93333333  1
  Cl  Cl13719  1  0.60000000  0.80000000  0.13333333  1
  Cl  Cl13720  1  0.60000000  0.80000000  0.33333333  1
  Cl  Cl13721  1  0.60000000  0.80000000  0.53333333  1
  Cl  Cl13722  1  0.60000000  0.80000000  0.73333333  1
  Cl  Cl13723  1  0.60000000  0.80000000  0.93333333  1
  Cl  Cl13724  1  0.80000000  0.00000000  0.13333333  1
  Cl  Cl13725  1  0.80000000  0.00000000  0.33333333  1
  Cl  Cl13726  1  0.80000000  0.00000000  0.53333333  1
  Cl  Cl13727  1  0.80000000  0.00000000  0.73333333  1
  Cl  Cl13728  1  0.80000000  0.00000000  0.93333333  1
  Cl  Cl13729  1  0.80000000  0.20000000  0.13333333  1
  Cl  Cl13730  1  0.80000000  0.20000000  0.33333333  1
  Cl  Cl13731  1  0.80000000  0.20000000  0.53333333  1
  Cl  Cl13732  1  0.80000000  0.20000000  0.73333333  1
  Cl  Cl13733  1  0.80000000  0.20000000  0.93333333  1
  Cl  Cl13734  1  0.80000000  0.40000000  0.13333333  1
  Cl  Cl13735  1  0.80000000  0.40000000  0.33333333  1
  Cl  Cl13736  1  0.80000000  0.40000000  0.53333333  1
  Cl  Cl13737  1  0.80000000  0.40000000  0.73333333  1
  Cl  Cl13738  1  0.80000000  0.40000000  0.93333333  1
  Cl  Cl13739  1  0.80000000  0.60000000  0.13333333  1
  Cl  Cl13740  1  0.80000000  0.60000000  0.33333333  1
  Cl  Cl13741  1  0.80000000  0.60000000  0.53333333  1
  Cl  Cl13742  1  0.80000000  0.60000000  0.73333333  1
  Cl  Cl13743  1  0.80000000  0.60000000  0.93333333  1
  Cl  Cl13744  1  0.80000000  0.80000000  0.13333333  1
  Cl  Cl13745  1  0.80000000  0.80000000  0.33333333  1
  Cl  Cl13746  1  0.80000000  0.80000000  0.53333333  1
  Cl  Cl13747  1  0.80000000  0.80000000  0.73333333  1
  Cl  Cl13748  1  0.80000000  0.80000000  0.93333333  1
  Cl  Cl13749  1  0.00000000  0.06666667  0.00000000  1
  Cl  Cl13750  1  0.00000000  0.06666667  0.20000000  1
  Cl  Cl13751  1  0.00000000  0.06666667  0.40000000  1
  Cl  Cl13752  1  0.00000000  0.06666667  0.60000000  1
  Cl  Cl13753  1  0.00000000  0.06666667  0.80000000  1
  Cl  Cl13754  1  0.00000000  0.26666667  0.00000000  1
  Cl  Cl13755  1  0.00000000  0.26666667  0.20000000  1
  Cl  Cl13756  1  0.00000000  0.26666667  0.40000000  1
  Cl  Cl13757  1  0.00000000  0.26666667  0.60000000  1
  Cl  Cl13758  1  0.00000000  0.26666667  0.80000000  1
  Cl  Cl13759  1  0.00000000  0.46666667  0.00000000  1
  Cl  Cl13760  1  0.00000000  0.46666667  0.20000000  1
  Cl  Cl13761  1  0.00000000  0.46666667  0.40000000  1
  Cl  Cl13762  1  0.00000000  0.46666667  0.60000000  1
  Cl  Cl13763  1  0.00000000  0.46666667  0.80000000  1
  Cl  Cl13764  1  0.00000000  0.66666667  0.00000000  1
  Cl  Cl13765  1  0.00000000  0.66666667  0.20000000  1
  Cl  Cl13766  1  0.00000000  0.66666667  0.40000000  1
  Cl  Cl13767  1  0.00000000  0.66666667  0.60000000  1
  Cl  Cl13768  1  0.00000000  0.66666667  0.80000000  1
  Cl  Cl13769  1  0.00000000  0.86666667  0.00000000  1
  Cl  Cl13770  1  0.00000000  0.86666667  0.20000000  1
  Cl  Cl13771  1  0.00000000  0.86666667  0.40000000  1
  Cl  Cl13772  1  0.00000000  0.86666667  0.60000000  1
  Cl  Cl13773  1  0.00000000  0.86666667  0.80000000  1
  Cl  Cl13774  1  0.20000000  0.06666667  0.00000000  1
  Cl  Cl13775  1  0.20000000  0.06666667  0.20000000  1
  Cl  Cl13776  1  0.20000000  0.06666667  0.40000000  1
  Cl  Cl13777  1  0.20000000  0.06666667  0.60000000  1
  Cl  Cl13778  1  0.20000000  0.06666667  0.80000000  1
  Cl  Cl13779  1  0.20000000  0.26666667  0.00000000  1
  Cl  Cl13780  1  0.20000000  0.26666667  0.20000000  1
  Cl  Cl13781  1  0.20000000  0.26666667  0.40000000  1
  Cl  Cl13782  1  0.20000000  0.26666667  0.60000000  1
  Cl  Cl13783  1  0.20000000  0.26666667  0.80000000  1
  Cl  Cl13784  1  0.20000000  0.46666667  0.00000000  1
  Cl  Cl13785  1  0.20000000  0.46666667  0.20000000  1
  Cl  Cl13786  1  0.20000000  0.46666667  0.40000000  1
  Cl  Cl13787  1  0.20000000  0.46666667  0.60000000  1
  Cl  Cl13788  1  0.20000000  0.46666667  0.80000000  1
  Cl  Cl13789  1  0.20000000  0.66666667  0.00000000  1
  Cl  Cl13790  1  0.20000000  0.66666667  0.20000000  1
  Cl  Cl13791  1  0.20000000  0.66666667  0.40000000  1
  Cl  Cl13792  1  0.20000000  0.66666667  0.60000000  1
  Cl  Cl13793  1  0.20000000  0.66666667  0.80000000  1
  Cl  Cl13794  1  0.20000000  0.86666667  0.00000000  1
  Cl  Cl13795  1  0.20000000  0.86666667  0.20000000  1
  Cl  Cl13796  1  0.20000000  0.86666667  0.40000000  1
  Cl  Cl13797  1  0.20000000  0.86666667  0.60000000  1
  Cl  Cl13798  1  0.20000000  0.86666667  0.80000000  1
  Cl  Cl13799  1  0.40000000  0.06666667  0.00000000  1
  Cl  Cl13800  1  0.40000000  0.06666667  0.20000000  1
  Cl  Cl13801  1  0.40000000  0.06666667  0.40000000  1
  Cl  Cl13802  1  0.40000000  0.06666667  0.60000000  1
  Cl  Cl13803  1  0.40000000  0.06666667  0.80000000  1
  Cl  Cl13804  1  0.40000000  0.26666667  0.00000000  1
  Cl  Cl13805  1  0.40000000  0.26666667  0.20000000  1
  Cl  Cl13806  1  0.40000000  0.26666667  0.40000000  1
  Cl  Cl13807  1  0.40000000  0.26666667  0.60000000  1
  Cl  Cl13808  1  0.40000000  0.26666667  0.80000000  1
  Cl  Cl13809  1  0.40000000  0.46666667  0.00000000  1
  Cl  Cl13810  1  0.40000000  0.46666667  0.20000000  1
  Cl  Cl13811  1  0.40000000  0.46666667  0.40000000  1
  Cl  Cl13812  1  0.40000000  0.46666667  0.60000000  1
  Cl  Cl13813  1  0.40000000  0.46666667  0.80000000  1
  Cl  Cl13814  1  0.40000000  0.66666667  0.00000000  1
  Cl  Cl13815  1  0.40000000  0.66666667  0.20000000  1
  Cl  Cl13816  1  0.40000000  0.66666667  0.40000000  1
  Cl  Cl13817  1  0.40000000  0.66666667  0.60000000  1
  Cl  Cl13818  1  0.40000000  0.66666667  0.80000000  1
  Cl  Cl13819  1  0.40000000  0.86666667  0.00000000  1
  Cl  Cl13820  1  0.40000000  0.86666667  0.20000000  1
  Cl  Cl13821  1  0.40000000  0.86666667  0.40000000  1
  Cl  Cl13822  1  0.40000000  0.86666667  0.60000000  1
  Cl  Cl13823  1  0.40000000  0.86666667  0.80000000  1
  Cl  Cl13824  1  0.60000000  0.06666667  0.00000000  1
  Cl  Cl13825  1  0.60000000  0.06666667  0.20000000  1
  Cl  Cl13826  1  0.60000000  0.06666667  0.40000000  1
  Cl  Cl13827  1  0.60000000  0.06666667  0.60000000  1
  Cl  Cl13828  1  0.60000000  0.06666667  0.80000000  1
  Cl  Cl13829  1  0.60000000  0.26666667  0.00000000  1
  Cl  Cl13830  1  0.60000000  0.26666667  0.20000000  1
  Cl  Cl13831  1  0.60000000  0.26666667  0.40000000  1
  Cl  Cl13832  1  0.60000000  0.26666667  0.60000000  1
  Cl  Cl13833  1  0.60000000  0.26666667  0.80000000  1
  Cl  Cl13834  1  0.60000000  0.46666667  0.00000000  1
  Cl  Cl13835  1  0.60000000  0.46666667  0.20000000  1
  Cl  Cl13836  1  0.60000000  0.46666667  0.40000000  1
  Cl  Cl13837  1  0.60000000  0.46666667  0.60000000  1
  Cl  Cl13838  1  0.60000000  0.46666667  0.80000000  1
  Cl  Cl13839  1  0.60000000  0.66666667  0.00000000  1
  Cl  Cl13840  1  0.60000000  0.66666667  0.20000000  1
  Cl  Cl13841  1  0.60000000  0.66666667  0.40000000  1
  Cl  Cl13842  1  0.60000000  0.66666667  0.60000000  1
  Cl  Cl13843  1  0.60000000  0.66666667  0.80000000  1
  Cl  Cl13844  1  0.60000000  0.86666667  0.00000000  1
  Cl  Cl13845  1  0.60000000  0.86666667  0.20000000  1
  Cl  Cl13846  1  0.60000000  0.86666667  0.40000000  1
  Cl  Cl13847  1  0.60000000  0.86666667  0.60000000  1
  Cl  Cl13848  1  0.60000000  0.86666667  0.80000000  1
  Cl  Cl13849  1  0.80000000  0.06666667  0.00000000  1
  Cl  Cl13850  1  0.80000000  0.06666667  0.20000000  1
  Cl  Cl13851  1  0.80000000  0.06666667  0.40000000  1
  Cl  Cl13852  1  0.80000000  0.06666667  0.60000000  1
  Cl  Cl13853  1  0.80000000  0.06666667  0.80000000  1
  Cl  Cl13854  1  0.80000000  0.26666667  0.00000000  1
  Cl  Cl13855  1  0.80000000  0.26666667  0.20000000  1
  Cl  Cl13856  1  0.80000000  0.26666667  0.40000000  1
  Cl  Cl13857  1  0.80000000  0.26666667  0.60000000  1
  Cl  Cl13858  1  0.80000000  0.26666667  0.80000000  1
  Cl  Cl13859  1  0.80000000  0.46666667  0.00000000  1
  Cl  Cl13860  1  0.80000000  0.46666667  0.20000000  1
  Cl  Cl13861  1  0.80000000  0.46666667  0.40000000  1
  Cl  Cl13862  1  0.80000000  0.46666667  0.60000000  1
  Cl  Cl13863  1  0.80000000  0.46666667  0.80000000  1
  Cl  Cl13864  1  0.80000000  0.66666667  0.00000000  1
  Cl  Cl13865  1  0.80000000  0.66666667  0.20000000  1
  Cl  Cl13866  1  0.80000000  0.66666667  0.40000000  1
  Cl  Cl13867  1  0.80000000  0.66666667  0.60000000  1
  Cl  Cl13868  1  0.80000000  0.66666667  0.80000000  1
  Cl  Cl13869  1  0.80000000  0.86666667  0.00000000  1
  Cl  Cl13870  1  0.80000000  0.86666667  0.20000000  1
  Cl  Cl13871  1  0.80000000  0.86666667  0.40000000  1
  Cl  Cl13872  1  0.80000000  0.86666667  0.60000000  1
  Cl  Cl13873  1  0.80000000  0.86666667  0.80000000  1
  Cl  Cl13874  1  0.00000000  0.06666667  0.06666667  1
  Cl  Cl13875  1  0.00000000  0.06666667  0.26666667  1
  Cl  Cl13876  1  0.00000000  0.06666667  0.46666667  1
  Cl  Cl13877  1  0.00000000  0.06666667  0.66666667  1
  Cl  Cl13878  1  0.00000000  0.06666667  0.86666667  1
  Cl  Cl13879  1  0.00000000  0.26666667  0.06666667  1
  Cl  Cl13880  1  0.00000000  0.26666667  0.26666667  1
  Cl  Cl13881  1  0.00000000  0.26666667  0.46666667  1
  Cl  Cl13882  1  0.00000000  0.26666667  0.66666667  1
  Cl  Cl13883  1  0.00000000  0.26666667  0.86666667  1
  Cl  Cl13884  1  0.00000000  0.46666667  0.06666667  1
  Cl  Cl13885  1  0.00000000  0.46666667  0.26666667  1
  Cl  Cl13886  1  0.00000000  0.46666667  0.46666667  1
  Cl  Cl13887  1  0.00000000  0.46666667  0.66666667  1
  Cl  Cl13888  1  0.00000000  0.46666667  0.86666667  1
  Cl  Cl13889  1  0.00000000  0.66666667  0.06666667  1
  Cl  Cl13890  1  0.00000000  0.66666667  0.26666667  1
  Cl  Cl13891  1  0.00000000  0.66666667  0.46666667  1
  Cl  Cl13892  1  0.00000000  0.66666667  0.66666667  1
  Cl  Cl13893  1  0.00000000  0.66666667  0.86666667  1
  Cl  Cl13894  1  0.00000000  0.86666667  0.06666667  1
  Cl  Cl13895  1  0.00000000  0.86666667  0.26666667  1
  Cl  Cl13896  1  0.00000000  0.86666667  0.46666667  1
  Cl  Cl13897  1  0.00000000  0.86666667  0.66666667  1
  Cl  Cl13898  1  0.00000000  0.86666667  0.86666667  1
  Cl  Cl13899  1  0.20000000  0.06666667  0.06666667  1
  Cl  Cl13900  1  0.20000000  0.06666667  0.26666667  1
  Cl  Cl13901  1  0.20000000  0.06666667  0.46666667  1
  Cl  Cl13902  1  0.20000000  0.06666667  0.66666667  1
  Cl  Cl13903  1  0.20000000  0.06666667  0.86666667  1
  Cl  Cl13904  1  0.20000000  0.26666667  0.06666667  1
  Cl  Cl13905  1  0.20000000  0.26666667  0.26666667  1
  Cl  Cl13906  1  0.20000000  0.26666667  0.46666667  1
  Cl  Cl13907  1  0.20000000  0.26666667  0.66666667  1
  Cl  Cl13908  1  0.20000000  0.26666667  0.86666667  1
  Cl  Cl13909  1  0.20000000  0.46666667  0.06666667  1
  Cl  Cl13910  1  0.20000000  0.46666667  0.26666667  1
  Cl  Cl13911  1  0.20000000  0.46666667  0.46666667  1
  Cl  Cl13912  1  0.20000000  0.46666667  0.66666667  1
  Cl  Cl13913  1  0.20000000  0.46666667  0.86666667  1
  Cl  Cl13914  1  0.20000000  0.66666667  0.06666667  1
  Cl  Cl13915  1  0.20000000  0.66666667  0.26666667  1
  Cl  Cl13916  1  0.20000000  0.66666667  0.46666667  1
  Cl  Cl13917  1  0.20000000  0.66666667  0.66666667  1
  Cl  Cl13918  1  0.20000000  0.66666667  0.86666667  1
  Cl  Cl13919  1  0.20000000  0.86666667  0.06666667  1
  Cl  Cl13920  1  0.20000000  0.86666667  0.26666667  1
  Cl  Cl13921  1  0.20000000  0.86666667  0.46666667  1
  Cl  Cl13922  1  0.20000000  0.86666667  0.66666667  1
  Cl  Cl13923  1  0.20000000  0.86666667  0.86666667  1
  Cl  Cl13924  1  0.40000000  0.06666667  0.06666667  1
  Cl  Cl13925  1  0.40000000  0.06666667  0.26666667  1
  Cl  Cl13926  1  0.40000000  0.06666667  0.46666667  1
  Cl  Cl13927  1  0.40000000  0.06666667  0.66666667  1
  Cl  Cl13928  1  0.40000000  0.06666667  0.86666667  1
  Cl  Cl13929  1  0.40000000  0.26666667  0.06666667  1
  Cl  Cl13930  1  0.40000000  0.26666667  0.26666667  1
  Cl  Cl13931  1  0.40000000  0.26666667  0.46666667  1
  Cl  Cl13932  1  0.40000000  0.26666667  0.66666667  1
  Cl  Cl13933  1  0.40000000  0.26666667  0.86666667  1
  Cl  Cl13934  1  0.40000000  0.46666667  0.06666667  1
  Cl  Cl13935  1  0.40000000  0.46666667  0.26666667  1
  Cl  Cl13936  1  0.40000000  0.46666667  0.46666667  1
  Cl  Cl13937  1  0.40000000  0.46666667  0.66666667  1
  Cl  Cl13938  1  0.40000000  0.46666667  0.86666667  1
  Cl  Cl13939  1  0.40000000  0.66666667  0.06666667  1
  Cl  Cl13940  1  0.40000000  0.66666667  0.26666667  1
  Cl  Cl13941  1  0.40000000  0.66666667  0.46666667  1
  Cl  Cl13942  1  0.40000000  0.66666667  0.66666667  1
  Cl  Cl13943  1  0.40000000  0.66666667  0.86666667  1
  Cl  Cl13944  1  0.40000000  0.86666667  0.06666667  1
  Cl  Cl13945  1  0.40000000  0.86666667  0.26666667  1
  Cl  Cl13946  1  0.40000000  0.86666667  0.46666667  1
  Cl  Cl13947  1  0.40000000  0.86666667  0.66666667  1
  Cl  Cl13948  1  0.40000000  0.86666667  0.86666667  1
  Cl  Cl13949  1  0.60000000  0.06666667  0.06666667  1
  Cl  Cl13950  1  0.60000000  0.06666667  0.26666667  1
  Cl  Cl13951  1  0.60000000  0.06666667  0.46666667  1
  Cl  Cl13952  1  0.60000000  0.06666667  0.66666667  1
  Cl  Cl13953  1  0.60000000  0.06666667  0.86666667  1
  Cl  Cl13954  1  0.60000000  0.26666667  0.06666667  1
  Cl  Cl13955  1  0.60000000  0.26666667  0.26666667  1
  Cl  Cl13956  1  0.60000000  0.26666667  0.46666667  1
  Cl  Cl13957  1  0.60000000  0.26666667  0.66666667  1
  Cl  Cl13958  1  0.60000000  0.26666667  0.86666667  1
  Cl  Cl13959  1  0.60000000  0.46666667  0.06666667  1
  Cl  Cl13960  1  0.60000000  0.46666667  0.26666667  1
  Cl  Cl13961  1  0.60000000  0.46666667  0.46666667  1
  Cl  Cl13962  1  0.60000000  0.46666667  0.66666667  1
  Cl  Cl13963  1  0.60000000  0.46666667  0.86666667  1
  Cl  Cl13964  1  0.60000000  0.66666667  0.06666667  1
  Cl  Cl13965  1  0.60000000  0.66666667  0.26666667  1
  Cl  Cl13966  1  0.60000000  0.66666667  0.46666667  1
  Cl  Cl13967  1  0.60000000  0.66666667  0.66666667  1
  Cl  Cl13968  1  0.60000000  0.66666667  0.86666667  1
  Cl  Cl13969  1  0.60000000  0.86666667  0.06666667  1
  Cl  Cl13970  1  0.60000000  0.86666667  0.26666667  1
  Cl  Cl13971  1  0.60000000  0.86666667  0.46666667  1
  Cl  Cl13972  1  0.60000000  0.86666667  0.66666667  1
  Cl  Cl13973  1  0.60000000  0.86666667  0.86666667  1
  Cl  Cl13974  1  0.80000000  0.06666667  0.06666667  1
  Cl  Cl13975  1  0.80000000  0.06666667  0.26666667  1
  Cl  Cl13976  1  0.80000000  0.06666667  0.46666667  1
  Cl  Cl13977  1  0.80000000  0.06666667  0.66666667  1
  Cl  Cl13978  1  0.80000000  0.06666667  0.86666667  1
  Cl  Cl13979  1  0.80000000  0.26666667  0.06666667  1
  Cl  Cl13980  1  0.80000000  0.26666667  0.26666667  1
  Cl  Cl13981  1  0.80000000  0.26666667  0.46666667  1
  Cl  Cl13982  1  0.80000000  0.26666667  0.66666667  1
  Cl  Cl13983  1  0.80000000  0.26666667  0.86666667  1
  Cl  Cl13984  1  0.80000000  0.46666667  0.06666667  1
  Cl  Cl13985  1  0.80000000  0.46666667  0.26666667  1
  Cl  Cl13986  1  0.80000000  0.46666667  0.46666667  1
  Cl  Cl13987  1  0.80000000  0.46666667  0.66666667  1
  Cl  Cl13988  1  0.80000000  0.46666667  0.86666667  1
  Cl  Cl13989  1  0.80000000  0.66666667  0.06666667  1
  Cl  Cl13990  1  0.80000000  0.66666667  0.26666667  1
  Cl  Cl13991  1  0.80000000  0.66666667  0.46666667  1
  Cl  Cl13992  1  0.80000000  0.66666667  0.66666667  1
  Cl  Cl13993  1  0.80000000  0.66666667  0.86666667  1
  Cl  Cl13994  1  0.80000000  0.86666667  0.06666667  1
  Cl  Cl13995  1  0.80000000  0.86666667  0.26666667  1
  Cl  Cl13996  1  0.80000000  0.86666667  0.46666667  1
  Cl  Cl13997  1  0.80000000  0.86666667  0.66666667  1
  Cl  Cl13998  1  0.80000000  0.86666667  0.86666667  1
  Cl  Cl13999  1  0.00000000  0.06666667  0.13333333  1
  Cl  Cl14000  1  0.00000000  0.06666667  0.33333333  1
  Cl  Cl14001  1  0.00000000  0.06666667  0.53333333  1
  Cl  Cl14002  1  0.00000000  0.06666667  0.73333333  1
  Cl  Cl14003  1  0.00000000  0.06666667  0.93333333  1
  Cl  Cl14004  1  0.00000000  0.26666667  0.13333333  1
  Cl  Cl14005  1  0.00000000  0.26666667  0.33333333  1
  Cl  Cl14006  1  0.00000000  0.26666667  0.53333333  1
  Cl  Cl14007  1  0.00000000  0.26666667  0.73333333  1
  Cl  Cl14008  1  0.00000000  0.26666667  0.93333333  1
  Cl  Cl14009  1  0.00000000  0.46666667  0.13333333  1
  Cl  Cl14010  1  0.00000000  0.46666667  0.33333333  1
  Cl  Cl14011  1  0.00000000  0.46666667  0.53333333  1
  Cl  Cl14012  1  0.00000000  0.46666667  0.73333333  1
  Cl  Cl14013  1  0.00000000  0.46666667  0.93333333  1
  Cl  Cl14014  1  0.00000000  0.66666667  0.13333333  1
  Cl  Cl14015  1  0.00000000  0.66666667  0.33333333  1
  Cl  Cl14016  1  0.00000000  0.66666667  0.53333333  1
  Cl  Cl14017  1  0.00000000  0.66666667  0.73333333  1
  Cl  Cl14018  1  0.00000000  0.66666667  0.93333333  1
  Cl  Cl14019  1  0.00000000  0.86666667  0.13333333  1
  Cl  Cl14020  1  0.00000000  0.86666667  0.33333333  1
  Cl  Cl14021  1  0.00000000  0.86666667  0.53333333  1
  Cl  Cl14022  1  0.00000000  0.86666667  0.73333333  1
  Cl  Cl14023  1  0.00000000  0.86666667  0.93333333  1
  Cl  Cl14024  1  0.20000000  0.06666667  0.13333333  1
  Cl  Cl14025  1  0.20000000  0.06666667  0.33333333  1
  Cl  Cl14026  1  0.20000000  0.06666667  0.53333333  1
  Cl  Cl14027  1  0.20000000  0.06666667  0.73333333  1
  Cl  Cl14028  1  0.20000000  0.06666667  0.93333333  1
  Cl  Cl14029  1  0.20000000  0.26666667  0.13333333  1
  Cl  Cl14030  1  0.20000000  0.26666667  0.33333333  1
  Cl  Cl14031  1  0.20000000  0.26666667  0.53333333  1
  Cl  Cl14032  1  0.20000000  0.26666667  0.73333333  1
  Cl  Cl14033  1  0.20000000  0.26666667  0.93333333  1
  Cl  Cl14034  1  0.20000000  0.46666667  0.13333333  1
  Cl  Cl14035  1  0.20000000  0.46666667  0.33333333  1
  Cl  Cl14036  1  0.20000000  0.46666667  0.53333333  1
  Cl  Cl14037  1  0.20000000  0.46666667  0.73333333  1
  Cl  Cl14038  1  0.20000000  0.46666667  0.93333333  1
  Cl  Cl14039  1  0.20000000  0.66666667  0.13333333  1
  Cl  Cl14040  1  0.20000000  0.66666667  0.33333333  1
  Cl  Cl14041  1  0.20000000  0.66666667  0.53333333  1
  Cl  Cl14042  1  0.20000000  0.66666667  0.73333333  1
  Cl  Cl14043  1  0.20000000  0.66666667  0.93333333  1
  Cl  Cl14044  1  0.20000000  0.86666667  0.13333333  1
  Cl  Cl14045  1  0.20000000  0.86666667  0.33333333  1
  Cl  Cl14046  1  0.20000000  0.86666667  0.53333333  1
  Cl  Cl14047  1  0.20000000  0.86666667  0.73333333  1
  Cl  Cl14048  1  0.20000000  0.86666667  0.93333333  1
  Cl  Cl14049  1  0.40000000  0.06666667  0.13333333  1
  Cl  Cl14050  1  0.40000000  0.06666667  0.33333333  1
  Cl  Cl14051  1  0.40000000  0.06666667  0.53333333  1
  Cl  Cl14052  1  0.40000000  0.06666667  0.73333333  1
  Cl  Cl14053  1  0.40000000  0.06666667  0.93333333  1
  Cl  Cl14054  1  0.40000000  0.26666667  0.13333333  1
  Cl  Cl14055  1  0.40000000  0.26666667  0.33333333  1
  Cl  Cl14056  1  0.40000000  0.26666667  0.53333333  1
  Cl  Cl14057  1  0.40000000  0.26666667  0.73333333  1
  Cl  Cl14058  1  0.40000000  0.26666667  0.93333333  1
  Cl  Cl14059  1  0.40000000  0.46666667  0.13333333  1
  Cl  Cl14060  1  0.40000000  0.46666667  0.33333333  1
  Cl  Cl14061  1  0.40000000  0.46666667  0.53333333  1
  Cl  Cl14062  1  0.40000000  0.46666667  0.73333333  1
  Cl  Cl14063  1  0.40000000  0.46666667  0.93333333  1
  Cl  Cl14064  1  0.40000000  0.66666667  0.13333333  1
  Cl  Cl14065  1  0.40000000  0.66666667  0.33333333  1
  Cl  Cl14066  1  0.40000000  0.66666667  0.53333333  1
  Cl  Cl14067  1  0.40000000  0.66666667  0.73333333  1
  Cl  Cl14068  1  0.40000000  0.66666667  0.93333333  1
  Cl  Cl14069  1  0.40000000  0.86666667  0.13333333  1
  Cl  Cl14070  1  0.40000000  0.86666667  0.33333333  1
  Cl  Cl14071  1  0.40000000  0.86666667  0.53333333  1
  Cl  Cl14072  1  0.40000000  0.86666667  0.73333333  1
  Cl  Cl14073  1  0.40000000  0.86666667  0.93333333  1
  Cl  Cl14074  1  0.60000000  0.06666667  0.13333333  1
  Cl  Cl14075  1  0.60000000  0.06666667  0.33333333  1
  Cl  Cl14076  1  0.60000000  0.06666667  0.53333333  1
  Cl  Cl14077  1  0.60000000  0.06666667  0.73333333  1
  Cl  Cl14078  1  0.60000000  0.06666667  0.93333333  1
  Cl  Cl14079  1  0.60000000  0.26666667  0.13333333  1
  Cl  Cl14080  1  0.60000000  0.26666667  0.33333333  1
  Cl  Cl14081  1  0.60000000  0.26666667  0.53333333  1
  Cl  Cl14082  1  0.60000000  0.26666667  0.73333333  1
  Cl  Cl14083  1  0.60000000  0.26666667  0.93333333  1
  Cl  Cl14084  1  0.60000000  0.46666667  0.13333333  1
  Cl  Cl14085  1  0.60000000  0.46666667  0.33333333  1
  Cl  Cl14086  1  0.60000000  0.46666667  0.53333333  1
  Cl  Cl14087  1  0.60000000  0.46666667  0.73333333  1
  Cl  Cl14088  1  0.60000000  0.46666667  0.93333333  1
  Cl  Cl14089  1  0.60000000  0.66666667  0.13333333  1
  Cl  Cl14090  1  0.60000000  0.66666667  0.33333333  1
  Cl  Cl14091  1  0.60000000  0.66666667  0.53333333  1
  Cl  Cl14092  1  0.60000000  0.66666667  0.73333333  1
  Cl  Cl14093  1  0.60000000  0.66666667  0.93333333  1
  Cl  Cl14094  1  0.60000000  0.86666667  0.13333333  1
  Cl  Cl14095  1  0.60000000  0.86666667  0.33333333  1
  Cl  Cl14096  1  0.60000000  0.86666667  0.53333333  1
  Cl  Cl14097  1  0.60000000  0.86666667  0.73333333  1
  Cl  Cl14098  1  0.60000000  0.86666667  0.93333333  1
  Cl  Cl14099  1  0.80000000  0.06666667  0.13333333  1
  Cl  Cl14100  1  0.80000000  0.06666667  0.33333333  1
  Cl  Cl14101  1  0.80000000  0.06666667  0.53333333  1
  Cl  Cl14102  1  0.80000000  0.06666667  0.73333333  1
  Cl  Cl14103  1  0.80000000  0.06666667  0.93333333  1
  Cl  Cl14104  1  0.80000000  0.26666667  0.13333333  1
  Cl  Cl14105  1  0.80000000  0.26666667  0.33333333  1
  Cl  Cl14106  1  0.80000000  0.26666667  0.53333333  1
  Cl  Cl14107  1  0.80000000  0.26666667  0.73333333  1
  Cl  Cl14108  1  0.80000000  0.26666667  0.93333333  1
  Cl  Cl14109  1  0.80000000  0.46666667  0.13333333  1
  Cl  Cl14110  1  0.80000000  0.46666667  0.33333333  1
  Cl  Cl14111  1  0.80000000  0.46666667  0.53333333  1
  Cl  Cl14112  1  0.80000000  0.46666667  0.73333333  1
  Cl  Cl14113  1  0.80000000  0.46666667  0.93333333  1
  Cl  Cl14114  1  0.80000000  0.66666667  0.13333333  1
  Cl  Cl14115  1  0.80000000  0.66666667  0.33333333  1
  Cl  Cl14116  1  0.80000000  0.66666667  0.53333333  1
  Cl  Cl14117  1  0.80000000  0.66666667  0.73333333  1
  Cl  Cl14118  1  0.80000000  0.66666667  0.93333333  1
  Cl  Cl14119  1  0.80000000  0.86666667  0.13333333  1
  Cl  Cl14120  1  0.80000000  0.86666667  0.33333333  1
  Cl  Cl14121  1  0.80000000  0.86666667  0.53333333  1
  Cl  Cl14122  1  0.80000000  0.86666667  0.73333333  1
  Cl  Cl14123  1  0.80000000  0.86666667  0.93333333  1
  Cl  Cl14124  1  0.00000000  0.13333333  0.00000000  1
  Cl  Cl14125  1  0.00000000  0.13333333  0.20000000  1
  Cl  Cl14126  1  0.00000000  0.13333333  0.40000000  1
  Cl  Cl14127  1  0.00000000  0.13333333  0.60000000  1
  Cl  Cl14128  1  0.00000000  0.13333333  0.80000000  1
  Cl  Cl14129  1  0.00000000  0.33333333  0.00000000  1
  Cl  Cl14130  1  0.00000000  0.33333333  0.20000000  1
  Cl  Cl14131  1  0.00000000  0.33333333  0.40000000  1
  Cl  Cl14132  1  0.00000000  0.33333333  0.60000000  1
  Cl  Cl14133  1  0.00000000  0.33333333  0.80000000  1
  Cl  Cl14134  1  0.00000000  0.53333333  0.00000000  1
  Cl  Cl14135  1  0.00000000  0.53333333  0.20000000  1
  Cl  Cl14136  1  0.00000000  0.53333333  0.40000000  1
  Cl  Cl14137  1  0.00000000  0.53333333  0.60000000  1
  Cl  Cl14138  1  0.00000000  0.53333333  0.80000000  1
  Cl  Cl14139  1  0.00000000  0.73333333  0.00000000  1
  Cl  Cl14140  1  0.00000000  0.73333333  0.20000000  1
  Cl  Cl14141  1  0.00000000  0.73333333  0.40000000  1
  Cl  Cl14142  1  0.00000000  0.73333333  0.60000000  1
  Cl  Cl14143  1  0.00000000  0.73333333  0.80000000  1
  Cl  Cl14144  1  0.00000000  0.93333333  0.00000000  1
  Cl  Cl14145  1  0.00000000  0.93333333  0.20000000  1
  Cl  Cl14146  1  0.00000000  0.93333333  0.40000000  1
  Cl  Cl14147  1  0.00000000  0.93333333  0.60000000  1
  Cl  Cl14148  1  0.00000000  0.93333333  0.80000000  1
  Cl  Cl14149  1  0.20000000  0.13333333  0.00000000  1
  Cl  Cl14150  1  0.20000000  0.13333333  0.20000000  1
  Cl  Cl14151  1  0.20000000  0.13333333  0.40000000  1
  Cl  Cl14152  1  0.20000000  0.13333333  0.60000000  1
  Cl  Cl14153  1  0.20000000  0.13333333  0.80000000  1
  Cl  Cl14154  1  0.20000000  0.33333333  0.00000000  1
  Cl  Cl14155  1  0.20000000  0.33333333  0.20000000  1
  Cl  Cl14156  1  0.20000000  0.33333333  0.40000000  1
  Cl  Cl14157  1  0.20000000  0.33333333  0.60000000  1
  Cl  Cl14158  1  0.20000000  0.33333333  0.80000000  1
  Cl  Cl14159  1  0.20000000  0.53333333  0.00000000  1
  Cl  Cl14160  1  0.20000000  0.53333333  0.20000000  1
  Cl  Cl14161  1  0.20000000  0.53333333  0.40000000  1
  Cl  Cl14162  1  0.20000000  0.53333333  0.60000000  1
  Cl  Cl14163  1  0.20000000  0.53333333  0.80000000  1
  Cl  Cl14164  1  0.20000000  0.73333333  0.00000000  1
  Cl  Cl14165  1  0.20000000  0.73333333  0.20000000  1
  Cl  Cl14166  1  0.20000000  0.73333333  0.40000000  1
  Cl  Cl14167  1  0.20000000  0.73333333  0.60000000  1
  Cl  Cl14168  1  0.20000000  0.73333333  0.80000000  1
  Cl  Cl14169  1  0.20000000  0.93333333  0.00000000  1
  Cl  Cl14170  1  0.20000000  0.93333333  0.20000000  1
  Cl  Cl14171  1  0.20000000  0.93333333  0.40000000  1
  Cl  Cl14172  1  0.20000000  0.93333333  0.60000000  1
  Cl  Cl14173  1  0.20000000  0.93333333  0.80000000  1
  Cl  Cl14174  1  0.40000000  0.13333333  0.00000000  1
  Cl  Cl14175  1  0.40000000  0.13333333  0.20000000  1
  Cl  Cl14176  1  0.40000000  0.13333333  0.40000000  1
  Cl  Cl14177  1  0.40000000  0.13333333  0.60000000  1
  Cl  Cl14178  1  0.40000000  0.13333333  0.80000000  1
  Cl  Cl14179  1  0.40000000  0.33333333  0.00000000  1
  Cl  Cl14180  1  0.40000000  0.33333333  0.20000000  1
  Cl  Cl14181  1  0.40000000  0.33333333  0.40000000  1
  Cl  Cl14182  1  0.40000000  0.33333333  0.60000000  1
  Cl  Cl14183  1  0.40000000  0.33333333  0.80000000  1
  Cl  Cl14184  1  0.40000000  0.53333333  0.00000000  1
  Cl  Cl14185  1  0.40000000  0.53333333  0.20000000  1
  Cl  Cl14186  1  0.40000000  0.53333333  0.40000000  1
  Cl  Cl14187  1  0.40000000  0.53333333  0.60000000  1
  Cl  Cl14188  1  0.40000000  0.53333333  0.80000000  1
  Cl  Cl14189  1  0.40000000  0.73333333  0.00000000  1
  Cl  Cl14190  1  0.40000000  0.73333333  0.20000000  1
  Cl  Cl14191  1  0.40000000  0.73333333  0.40000000  1
  Cl  Cl14192  1  0.40000000  0.73333333  0.60000000  1
  Cl  Cl14193  1  0.40000000  0.73333333  0.80000000  1
  Cl  Cl14194  1  0.40000000  0.93333333  0.00000000  1
  Cl  Cl14195  1  0.40000000  0.93333333  0.20000000  1
  Cl  Cl14196  1  0.40000000  0.93333333  0.40000000  1
  Cl  Cl14197  1  0.40000000  0.93333333  0.60000000  1
  Cl  Cl14198  1  0.40000000  0.93333333  0.80000000  1
  Cl  Cl14199  1  0.60000000  0.13333333  0.00000000  1
  Cl  Cl14200  1  0.60000000  0.13333333  0.20000000  1
  Cl  Cl14201  1  0.60000000  0.13333333  0.40000000  1
  Cl  Cl14202  1  0.60000000  0.13333333  0.60000000  1
  Cl  Cl14203  1  0.60000000  0.13333333  0.80000000  1
  Cl  Cl14204  1  0.60000000  0.33333333  0.00000000  1
  Cl  Cl14205  1  0.60000000  0.33333333  0.20000000  1
  Cl  Cl14206  1  0.60000000  0.33333333  0.40000000  1
  Cl  Cl14207  1  0.60000000  0.33333333  0.60000000  1
  Cl  Cl14208  1  0.60000000  0.33333333  0.80000000  1
  Cl  Cl14209  1  0.60000000  0.53333333  0.00000000  1
  Cl  Cl14210  1  0.60000000  0.53333333  0.20000000  1
  Cl  Cl14211  1  0.60000000  0.53333333  0.40000000  1
  Cl  Cl14212  1  0.60000000  0.53333333  0.60000000  1
  Cl  Cl14213  1  0.60000000  0.53333333  0.80000000  1
  Cl  Cl14214  1  0.60000000  0.73333333  0.00000000  1
  Cl  Cl14215  1  0.60000000  0.73333333  0.20000000  1
  Cl  Cl14216  1  0.60000000  0.73333333  0.40000000  1
  Cl  Cl14217  1  0.60000000  0.73333333  0.60000000  1
  Cl  Cl14218  1  0.60000000  0.73333333  0.80000000  1
  Cl  Cl14219  1  0.60000000  0.93333333  0.00000000  1
  Cl  Cl14220  1  0.60000000  0.93333333  0.20000000  1
  Cl  Cl14221  1  0.60000000  0.93333333  0.40000000  1
  Cl  Cl14222  1  0.60000000  0.93333333  0.60000000  1
  Cl  Cl14223  1  0.60000000  0.93333333  0.80000000  1
  Cl  Cl14224  1  0.80000000  0.13333333  0.00000000  1
  Cl  Cl14225  1  0.80000000  0.13333333  0.20000000  1
  Cl  Cl14226  1  0.80000000  0.13333333  0.40000000  1
  Cl  Cl14227  1  0.80000000  0.13333333  0.60000000  1
  Cl  Cl14228  1  0.80000000  0.13333333  0.80000000  1
  Cl  Cl14229  1  0.80000000  0.33333333  0.00000000  1
  Cl  Cl14230  1  0.80000000  0.33333333  0.20000000  1
  Cl  Cl14231  1  0.80000000  0.33333333  0.40000000  1
  Cl  Cl14232  1  0.80000000  0.33333333  0.60000000  1
  Cl  Cl14233  1  0.80000000  0.33333333  0.80000000  1
  Cl  Cl14234  1  0.80000000  0.53333333  0.00000000  1
  Cl  Cl14235  1  0.80000000  0.53333333  0.20000000  1
  Cl  Cl14236  1  0.80000000  0.53333333  0.40000000  1
  Cl  Cl14237  1  0.80000000  0.53333333  0.60000000  1
  Cl  Cl14238  1  0.80000000  0.53333333  0.80000000  1
  Cl  Cl14239  1  0.80000000  0.73333333  0.00000000  1
  Cl  Cl14240  1  0.80000000  0.73333333  0.20000000  1
  Cl  Cl14241  1  0.80000000  0.73333333  0.40000000  1
  Cl  Cl14242  1  0.80000000  0.73333333  0.60000000  1
  Cl  Cl14243  1  0.80000000  0.73333333  0.80000000  1
  Cl  Cl14244  1  0.80000000  0.93333333  0.00000000  1
  Cl  Cl14245  1  0.80000000  0.93333333  0.20000000  1
  Cl  Cl14246  1  0.80000000  0.93333333  0.40000000  1
  Cl  Cl14247  1  0.80000000  0.93333333  0.60000000  1
  Cl  Cl14248  1  0.80000000  0.93333333  0.80000000  1
  Cl  Cl14249  1  0.00000000  0.13333333  0.06666667  1
  Cl  Cl14250  1  0.00000000  0.13333333  0.26666667  1
  Cl  Cl14251  1  0.00000000  0.13333333  0.46666667  1
  Cl  Cl14252  1  0.00000000  0.13333333  0.66666667  1
  Cl  Cl14253  1  0.00000000  0.13333333  0.86666667  1
  Cl  Cl14254  1  0.00000000  0.33333333  0.06666667  1
  Cl  Cl14255  1  0.00000000  0.33333333  0.26666667  1
  Cl  Cl14256  1  0.00000000  0.33333333  0.46666667  1
  Cl  Cl14257  1  0.00000000  0.33333333  0.66666667  1
  Cl  Cl14258  1  0.00000000  0.33333333  0.86666667  1
  Cl  Cl14259  1  0.00000000  0.53333333  0.06666667  1
  Cl  Cl14260  1  0.00000000  0.53333333  0.26666667  1
  Cl  Cl14261  1  0.00000000  0.53333333  0.46666667  1
  Cl  Cl14262  1  0.00000000  0.53333333  0.66666667  1
  Cl  Cl14263  1  0.00000000  0.53333333  0.86666667  1
  Cl  Cl14264  1  0.00000000  0.73333333  0.06666667  1
  Cl  Cl14265  1  0.00000000  0.73333333  0.26666667  1
  Cl  Cl14266  1  0.00000000  0.73333333  0.46666667  1
  Cl  Cl14267  1  0.00000000  0.73333333  0.66666667  1
  Cl  Cl14268  1  0.00000000  0.73333333  0.86666667  1
  Cl  Cl14269  1  0.00000000  0.93333333  0.06666667  1
  Cl  Cl14270  1  0.00000000  0.93333333  0.26666667  1
  Cl  Cl14271  1  0.00000000  0.93333333  0.46666667  1
  Cl  Cl14272  1  0.00000000  0.93333333  0.66666667  1
  Cl  Cl14273  1  0.00000000  0.93333333  0.86666667  1
  Cl  Cl14274  1  0.20000000  0.13333333  0.06666667  1
  Cl  Cl14275  1  0.20000000  0.13333333  0.26666667  1
  Cl  Cl14276  1  0.20000000  0.13333333  0.46666667  1
  Cl  Cl14277  1  0.20000000  0.13333333  0.66666667  1
  Cl  Cl14278  1  0.20000000  0.13333333  0.86666667  1
  Cl  Cl14279  1  0.20000000  0.33333333  0.06666667  1
  Cl  Cl14280  1  0.20000000  0.33333333  0.26666667  1
  Cl  Cl14281  1  0.20000000  0.33333333  0.46666667  1
  Cl  Cl14282  1  0.20000000  0.33333333  0.66666667  1
  Cl  Cl14283  1  0.20000000  0.33333333  0.86666667  1
  Cl  Cl14284  1  0.20000000  0.53333333  0.06666667  1
  Cl  Cl14285  1  0.20000000  0.53333333  0.26666667  1
  Cl  Cl14286  1  0.20000000  0.53333333  0.46666667  1
  Cl  Cl14287  1  0.20000000  0.53333333  0.66666667  1
  Cl  Cl14288  1  0.20000000  0.53333333  0.86666667  1
  Cl  Cl14289  1  0.20000000  0.73333333  0.06666667  1
  Cl  Cl14290  1  0.20000000  0.73333333  0.26666667  1
  Cl  Cl14291  1  0.20000000  0.73333333  0.46666667  1
  Cl  Cl14292  1  0.20000000  0.73333333  0.66666667  1
  Cl  Cl14293  1  0.20000000  0.73333333  0.86666667  1
  Cl  Cl14294  1  0.20000000  0.93333333  0.06666667  1
  Cl  Cl14295  1  0.20000000  0.93333333  0.26666667  1
  Cl  Cl14296  1  0.20000000  0.93333333  0.46666667  1
  Cl  Cl14297  1  0.20000000  0.93333333  0.66666667  1
  Cl  Cl14298  1  0.20000000  0.93333333  0.86666667  1
  Cl  Cl14299  1  0.40000000  0.13333333  0.06666667  1
  Cl  Cl14300  1  0.40000000  0.13333333  0.26666667  1
  Cl  Cl14301  1  0.40000000  0.13333333  0.46666667  1
  Cl  Cl14302  1  0.40000000  0.13333333  0.66666667  1
  Cl  Cl14303  1  0.40000000  0.13333333  0.86666667  1
  Cl  Cl14304  1  0.40000000  0.33333333  0.06666667  1
  Cl  Cl14305  1  0.40000000  0.33333333  0.26666667  1
  Cl  Cl14306  1  0.40000000  0.33333333  0.46666667  1
  Cl  Cl14307  1  0.40000000  0.33333333  0.66666667  1
  Cl  Cl14308  1  0.40000000  0.33333333  0.86666667  1
  Cl  Cl14309  1  0.40000000  0.53333333  0.06666667  1
  Cl  Cl14310  1  0.40000000  0.53333333  0.26666667  1
  Cl  Cl14311  1  0.40000000  0.53333333  0.46666667  1
  Cl  Cl14312  1  0.40000000  0.53333333  0.66666667  1
  Cl  Cl14313  1  0.40000000  0.53333333  0.86666667  1
  Cl  Cl14314  1  0.40000000  0.73333333  0.06666667  1
  Cl  Cl14315  1  0.40000000  0.73333333  0.26666667  1
  Cl  Cl14316  1  0.40000000  0.73333333  0.46666667  1
  Cl  Cl14317  1  0.40000000  0.73333333  0.66666667  1
  Cl  Cl14318  1  0.40000000  0.73333333  0.86666667  1
  Cl  Cl14319  1  0.40000000  0.93333333  0.06666667  1
  Cl  Cl14320  1  0.40000000  0.93333333  0.26666667  1
  Cl  Cl14321  1  0.40000000  0.93333333  0.46666667  1
  Cl  Cl14322  1  0.40000000  0.93333333  0.66666667  1
  Cl  Cl14323  1  0.40000000  0.93333333  0.86666667  1
  Cl  Cl14324  1  0.60000000  0.13333333  0.06666667  1
  Cl  Cl14325  1  0.60000000  0.13333333  0.26666667  1
  Cl  Cl14326  1  0.60000000  0.13333333  0.46666667  1
  Cl  Cl14327  1  0.60000000  0.13333333  0.66666667  1
  Cl  Cl14328  1  0.60000000  0.13333333  0.86666667  1
  Cl  Cl14329  1  0.60000000  0.33333333  0.06666667  1
  Cl  Cl14330  1  0.60000000  0.33333333  0.26666667  1
  Cl  Cl14331  1  0.60000000  0.33333333  0.46666667  1
  Cl  Cl14332  1  0.60000000  0.33333333  0.66666667  1
  Cl  Cl14333  1  0.60000000  0.33333333  0.86666667  1
  Cl  Cl14334  1  0.60000000  0.53333333  0.06666667  1
  Cl  Cl14335  1  0.60000000  0.53333333  0.26666667  1
  Cl  Cl14336  1  0.60000000  0.53333333  0.46666667  1
  Cl  Cl14337  1  0.60000000  0.53333333  0.66666667  1
  Cl  Cl14338  1  0.60000000  0.53333333  0.86666667  1
  Cl  Cl14339  1  0.60000000  0.73333333  0.06666667  1
  Cl  Cl14340  1  0.60000000  0.73333333  0.26666667  1
  Cl  Cl14341  1  0.60000000  0.73333333  0.46666667  1
  Cl  Cl14342  1  0.60000000  0.73333333  0.66666667  1
  Cl  Cl14343  1  0.60000000  0.73333333  0.86666667  1
  Cl  Cl14344  1  0.60000000  0.93333333  0.06666667  1
  Cl  Cl14345  1  0.60000000  0.93333333  0.26666667  1
  Cl  Cl14346  1  0.60000000  0.93333333  0.46666667  1
  Cl  Cl14347  1  0.60000000  0.93333333  0.66666667  1
  Cl  Cl14348  1  0.60000000  0.93333333  0.86666667  1
  Cl  Cl14349  1  0.80000000  0.13333333  0.06666667  1
  Cl  Cl14350  1  0.80000000  0.13333333  0.26666667  1
  Cl  Cl14351  1  0.80000000  0.13333333  0.46666667  1
  Cl  Cl14352  1  0.80000000  0.13333333  0.66666667  1
  Cl  Cl14353  1  0.80000000  0.13333333  0.86666667  1
  Cl  Cl14354  1  0.80000000  0.33333333  0.06666667  1
  Cl  Cl14355  1  0.80000000  0.33333333  0.26666667  1
  Cl  Cl14356  1  0.80000000  0.33333333  0.46666667  1
  Cl  Cl14357  1  0.80000000  0.33333333  0.66666667  1
  Cl  Cl14358  1  0.80000000  0.33333333  0.86666667  1
  Cl  Cl14359  1  0.80000000  0.53333333  0.06666667  1
  Cl  Cl14360  1  0.80000000  0.53333333  0.26666667  1
  Cl  Cl14361  1  0.80000000  0.53333333  0.46666667  1
  Cl  Cl14362  1  0.80000000  0.53333333  0.66666667  1
  Cl  Cl14363  1  0.80000000  0.53333333  0.86666667  1
  Cl  Cl14364  1  0.80000000  0.73333333  0.06666667  1
  Cl  Cl14365  1  0.80000000  0.73333333  0.26666667  1
  Cl  Cl14366  1  0.80000000  0.73333333  0.46666667  1
  Cl  Cl14367  1  0.80000000  0.73333333  0.66666667  1
  Cl  Cl14368  1  0.80000000  0.73333333  0.86666667  1
  Cl  Cl14369  1  0.80000000  0.93333333  0.06666667  1
  Cl  Cl14370  1  0.80000000  0.93333333  0.26666667  1
  Cl  Cl14371  1  0.80000000  0.93333333  0.46666667  1
  Cl  Cl14372  1  0.80000000  0.93333333  0.66666667  1
  Cl  Cl14373  1  0.80000000  0.93333333  0.86666667  1
  Cl  Cl14374  1  0.00000000  0.13333333  0.13333333  1
  Cl  Cl14375  1  0.00000000  0.13333333  0.33333333  1
  Cl  Cl14376  1  0.00000000  0.13333333  0.53333333  1
  Cl  Cl14377  1  0.00000000  0.13333333  0.73333333  1
  Cl  Cl14378  1  0.00000000  0.13333333  0.93333333  1
  Cl  Cl14379  1  0.00000000  0.33333333  0.13333333  1
  Cl  Cl14380  1  0.00000000  0.33333333  0.33333333  1
  Cl  Cl14381  1  0.00000000  0.33333333  0.53333333  1
  Cl  Cl14382  1  0.00000000  0.33333333  0.73333333  1
  Cl  Cl14383  1  0.00000000  0.33333333  0.93333333  1
  Cl  Cl14384  1  0.00000000  0.53333333  0.13333333  1
  Cl  Cl14385  1  0.00000000  0.53333333  0.33333333  1
  Cl  Cl14386  1  0.00000000  0.53333333  0.53333333  1
  Cl  Cl14387  1  0.00000000  0.53333333  0.73333333  1
  Cl  Cl14388  1  0.00000000  0.53333333  0.93333333  1
  Cl  Cl14389  1  0.00000000  0.73333333  0.13333333  1
  Cl  Cl14390  1  0.00000000  0.73333333  0.33333333  1
  Cl  Cl14391  1  0.00000000  0.73333333  0.53333333  1
  Cl  Cl14392  1  0.00000000  0.73333333  0.73333333  1
  Cl  Cl14393  1  0.00000000  0.73333333  0.93333333  1
  Cl  Cl14394  1  0.00000000  0.93333333  0.13333333  1
  Cl  Cl14395  1  0.00000000  0.93333333  0.33333333  1
  Cl  Cl14396  1  0.00000000  0.93333333  0.53333333  1
  Cl  Cl14397  1  0.00000000  0.93333333  0.73333333  1
  Cl  Cl14398  1  0.00000000  0.93333333  0.93333333  1
  Cl  Cl14399  1  0.20000000  0.13333333  0.13333333  1
  Cl  Cl14400  1  0.20000000  0.13333333  0.33333333  1
  Cl  Cl14401  1  0.20000000  0.13333333  0.53333333  1
  Cl  Cl14402  1  0.20000000  0.13333333  0.73333333  1
  Cl  Cl14403  1  0.20000000  0.13333333  0.93333333  1
  Cl  Cl14404  1  0.20000000  0.33333333  0.13333333  1
  Cl  Cl14405  1  0.20000000  0.33333333  0.33333333  1
  Cl  Cl14406  1  0.20000000  0.33333333  0.53333333  1
  Cl  Cl14407  1  0.20000000  0.33333333  0.73333333  1
  Cl  Cl14408  1  0.20000000  0.33333333  0.93333333  1
  Cl  Cl14409  1  0.20000000  0.53333333  0.13333333  1
  Cl  Cl14410  1  0.20000000  0.53333333  0.33333333  1
  Cl  Cl14411  1  0.20000000  0.53333333  0.53333333  1
  Cl  Cl14412  1  0.20000000  0.53333333  0.73333333  1
  Cl  Cl14413  1  0.20000000  0.53333333  0.93333333  1
  Cl  Cl14414  1  0.20000000  0.73333333  0.13333333  1
  Cl  Cl14415  1  0.20000000  0.73333333  0.33333333  1
  Cl  Cl14416  1  0.20000000  0.73333333  0.53333333  1
  Cl  Cl14417  1  0.20000000  0.73333333  0.73333333  1
  Cl  Cl14418  1  0.20000000  0.73333333  0.93333333  1
  Cl  Cl14419  1  0.20000000  0.93333333  0.13333333  1
  Cl  Cl14420  1  0.20000000  0.93333333  0.33333333  1
  Cl  Cl14421  1  0.20000000  0.93333333  0.53333333  1
  Cl  Cl14422  1  0.20000000  0.93333333  0.73333333  1
  Cl  Cl14423  1  0.20000000  0.93333333  0.93333333  1
  Cl  Cl14424  1  0.40000000  0.13333333  0.13333333  1
  Cl  Cl14425  1  0.40000000  0.13333333  0.33333333  1
  Cl  Cl14426  1  0.40000000  0.13333333  0.53333333  1
  Cl  Cl14427  1  0.40000000  0.13333333  0.73333333  1
  Cl  Cl14428  1  0.40000000  0.13333333  0.93333333  1
  Cl  Cl14429  1  0.40000000  0.33333333  0.13333333  1
  Cl  Cl14430  1  0.40000000  0.33333333  0.33333333  1
  Cl  Cl14431  1  0.40000000  0.33333333  0.53333333  1
  Cl  Cl14432  1  0.40000000  0.33333333  0.73333333  1
  Cl  Cl14433  1  0.40000000  0.33333333  0.93333333  1
  Cl  Cl14434  1  0.40000000  0.53333333  0.13333333  1
  Cl  Cl14435  1  0.40000000  0.53333333  0.33333333  1
  Cl  Cl14436  1  0.40000000  0.53333333  0.53333333  1
  Cl  Cl14437  1  0.40000000  0.53333333  0.73333333  1
  Cl  Cl14438  1  0.40000000  0.53333333  0.93333333  1
  Cl  Cl14439  1  0.40000000  0.73333333  0.13333333  1
  Cl  Cl14440  1  0.40000000  0.73333333  0.33333333  1
  Cl  Cl14441  1  0.40000000  0.73333333  0.53333333  1
  Cl  Cl14442  1  0.40000000  0.73333333  0.73333333  1
  Cl  Cl14443  1  0.40000000  0.73333333  0.93333333  1
  Cl  Cl14444  1  0.40000000  0.93333333  0.13333333  1
  Cl  Cl14445  1  0.40000000  0.93333333  0.33333333  1
  Cl  Cl14446  1  0.40000000  0.93333333  0.53333333  1
  Cl  Cl14447  1  0.40000000  0.93333333  0.73333333  1
  Cl  Cl14448  1  0.40000000  0.93333333  0.93333333  1
  Cl  Cl14449  1  0.60000000  0.13333333  0.13333333  1
  Cl  Cl14450  1  0.60000000  0.13333333  0.33333333  1
  Cl  Cl14451  1  0.60000000  0.13333333  0.53333333  1
  Cl  Cl14452  1  0.60000000  0.13333333  0.73333333  1
  Cl  Cl14453  1  0.60000000  0.13333333  0.93333333  1
  Cl  Cl14454  1  0.60000000  0.33333333  0.13333333  1
  Cl  Cl14455  1  0.60000000  0.33333333  0.33333333  1
  Cl  Cl14456  1  0.60000000  0.33333333  0.53333333  1
  Cl  Cl14457  1  0.60000000  0.33333333  0.73333333  1
  Cl  Cl14458  1  0.60000000  0.33333333  0.93333333  1
  Cl  Cl14459  1  0.60000000  0.53333333  0.13333333  1
  Cl  Cl14460  1  0.60000000  0.53333333  0.33333333  1
  Cl  Cl14461  1  0.60000000  0.53333333  0.53333333  1
  Cl  Cl14462  1  0.60000000  0.53333333  0.73333333  1
  Cl  Cl14463  1  0.60000000  0.53333333  0.93333333  1
  Cl  Cl14464  1  0.60000000  0.73333333  0.13333333  1
  Cl  Cl14465  1  0.60000000  0.73333333  0.33333333  1
  Cl  Cl14466  1  0.60000000  0.73333333  0.53333333  1
  Cl  Cl14467  1  0.60000000  0.73333333  0.73333333  1
  Cl  Cl14468  1  0.60000000  0.73333333  0.93333333  1
  Cl  Cl14469  1  0.60000000  0.93333333  0.13333333  1
  Cl  Cl14470  1  0.60000000  0.93333333  0.33333333  1
  Cl  Cl14471  1  0.60000000  0.93333333  0.53333333  1
  Cl  Cl14472  1  0.60000000  0.93333333  0.73333333  1
  Cl  Cl14473  1  0.60000000  0.93333333  0.93333333  1
  Cl  Cl14474  1  0.80000000  0.13333333  0.13333333  1
  Cl  Cl14475  1  0.80000000  0.13333333  0.33333333  1
  Cl  Cl14476  1  0.80000000  0.13333333  0.53333333  1
  Cl  Cl14477  1  0.80000000  0.13333333  0.73333333  1
  Cl  Cl14478  1  0.80000000  0.13333333  0.93333333  1
  Cl  Cl14479  1  0.80000000  0.33333333  0.13333333  1
  Cl  Cl14480  1  0.80000000  0.33333333  0.33333333  1
  Cl  Cl14481  1  0.80000000  0.33333333  0.53333333  1
  Cl  Cl14482  1  0.80000000  0.33333333  0.73333333  1
  Cl  Cl14483  1  0.80000000  0.33333333  0.93333333  1
  Cl  Cl14484  1  0.80000000  0.53333333  0.13333333  1
  Cl  Cl14485  1  0.80000000  0.53333333  0.33333333  1
  Cl  Cl14486  1  0.80000000  0.53333333  0.53333333  1
  Cl  Cl14487  1  0.80000000  0.53333333  0.73333333  1
  Cl  Cl14488  1  0.80000000  0.53333333  0.93333333  1
  Cl  Cl14489  1  0.80000000  0.73333333  0.13333333  1
  Cl  Cl14490  1  0.80000000  0.73333333  0.33333333  1
  Cl  Cl14491  1  0.80000000  0.73333333  0.53333333  1
  Cl  Cl14492  1  0.80000000  0.73333333  0.73333333  1
  Cl  Cl14493  1  0.80000000  0.73333333  0.93333333  1
  Cl  Cl14494  1  0.80000000  0.93333333  0.13333333  1
  Cl  Cl14495  1  0.80000000  0.93333333  0.33333333  1
  Cl  Cl14496  1  0.80000000  0.93333333  0.53333333  1
  Cl  Cl14497  1  0.80000000  0.93333333  0.73333333  1
  Cl  Cl14498  1  0.80000000  0.93333333  0.93333333  1
  Cl  Cl14499  1  0.06666667  0.00000000  0.00000000  1
  Cl  Cl14500  1  0.06666667  0.00000000  0.20000000  1
  Cl  Cl14501  1  0.06666667  0.00000000  0.40000000  1
  Cl  Cl14502  1  0.06666667  0.00000000  0.60000000  1
  Cl  Cl14503  1  0.06666667  0.00000000  0.80000000  1
  Cl  Cl14504  1  0.06666667  0.20000000  0.00000000  1
  Cl  Cl14505  1  0.06666667  0.20000000  0.20000000  1
  Cl  Cl14506  1  0.06666667  0.20000000  0.40000000  1
  Cl  Cl14507  1  0.06666667  0.20000000  0.60000000  1
  Cl  Cl14508  1  0.06666667  0.20000000  0.80000000  1
  Cl  Cl14509  1  0.06666667  0.40000000  0.00000000  1
  Cl  Cl14510  1  0.06666667  0.40000000  0.20000000  1
  Cl  Cl14511  1  0.06666667  0.40000000  0.40000000  1
  Cl  Cl14512  1  0.06666667  0.40000000  0.60000000  1
  Cl  Cl14513  1  0.06666667  0.40000000  0.80000000  1
  Cl  Cl14514  1  0.06666667  0.60000000  0.00000000  1
  Cl  Cl14515  1  0.06666667  0.60000000  0.20000000  1
  Cl  Cl14516  1  0.06666667  0.60000000  0.40000000  1
  Cl  Cl14517  1  0.06666667  0.60000000  0.60000000  1
  Cl  Cl14518  1  0.06666667  0.60000000  0.80000000  1
  Cl  Cl14519  1  0.06666667  0.80000000  0.00000000  1
  Cl  Cl14520  1  0.06666667  0.80000000  0.20000000  1
  Cl  Cl14521  1  0.06666667  0.80000000  0.40000000  1
  Cl  Cl14522  1  0.06666667  0.80000000  0.60000000  1
  Cl  Cl14523  1  0.06666667  0.80000000  0.80000000  1
  Cl  Cl14524  1  0.26666667  0.00000000  0.00000000  1
  Cl  Cl14525  1  0.26666667  0.00000000  0.20000000  1
  Cl  Cl14526  1  0.26666667  0.00000000  0.40000000  1
  Cl  Cl14527  1  0.26666667  0.00000000  0.60000000  1
  Cl  Cl14528  1  0.26666667  0.00000000  0.80000000  1
  Cl  Cl14529  1  0.26666667  0.20000000  0.00000000  1
  Cl  Cl14530  1  0.26666667  0.20000000  0.20000000  1
  Cl  Cl14531  1  0.26666667  0.20000000  0.40000000  1
  Cl  Cl14532  1  0.26666667  0.20000000  0.60000000  1
  Cl  Cl14533  1  0.26666667  0.20000000  0.80000000  1
  Cl  Cl14534  1  0.26666667  0.40000000  0.00000000  1
  Cl  Cl14535  1  0.26666667  0.40000000  0.20000000  1
  Cl  Cl14536  1  0.26666667  0.40000000  0.40000000  1
  Cl  Cl14537  1  0.26666667  0.40000000  0.60000000  1
  Cl  Cl14538  1  0.26666667  0.40000000  0.80000000  1
  Cl  Cl14539  1  0.26666667  0.60000000  0.00000000  1
  Cl  Cl14540  1  0.26666667  0.60000000  0.20000000  1
  Cl  Cl14541  1  0.26666667  0.60000000  0.40000000  1
  Cl  Cl14542  1  0.26666667  0.60000000  0.60000000  1
  Cl  Cl14543  1  0.26666667  0.60000000  0.80000000  1
  Cl  Cl14544  1  0.26666667  0.80000000  0.00000000  1
  Cl  Cl14545  1  0.26666667  0.80000000  0.20000000  1
  Cl  Cl14546  1  0.26666667  0.80000000  0.40000000  1
  Cl  Cl14547  1  0.26666667  0.80000000  0.60000000  1
  Cl  Cl14548  1  0.26666667  0.80000000  0.80000000  1
  Cl  Cl14549  1  0.46666667  0.00000000  0.00000000  1
  Cl  Cl14550  1  0.46666667  0.00000000  0.20000000  1
  Cl  Cl14551  1  0.46666667  0.00000000  0.40000000  1
  Cl  Cl14552  1  0.46666667  0.00000000  0.60000000  1
  Cl  Cl14553  1  0.46666667  0.00000000  0.80000000  1
  Cl  Cl14554  1  0.46666667  0.20000000  0.00000000  1
  Cl  Cl14555  1  0.46666667  0.20000000  0.20000000  1
  Cl  Cl14556  1  0.46666667  0.20000000  0.40000000  1
  Cl  Cl14557  1  0.46666667  0.20000000  0.60000000  1
  Cl  Cl14558  1  0.46666667  0.20000000  0.80000000  1
  Cl  Cl14559  1  0.46666667  0.40000000  0.00000000  1
  Cl  Cl14560  1  0.46666667  0.40000000  0.20000000  1
  Cl  Cl14561  1  0.46666667  0.40000000  0.40000000  1
  Cl  Cl14562  1  0.46666667  0.40000000  0.60000000  1
  Cl  Cl14563  1  0.46666667  0.40000000  0.80000000  1
  Cl  Cl14564  1  0.46666667  0.60000000  0.00000000  1
  Cl  Cl14565  1  0.46666667  0.60000000  0.20000000  1
  Cl  Cl14566  1  0.46666667  0.60000000  0.40000000  1
  Cl  Cl14567  1  0.46666667  0.60000000  0.60000000  1
  Cl  Cl14568  1  0.46666667  0.60000000  0.80000000  1
  Cl  Cl14569  1  0.46666667  0.80000000  0.00000000  1
  Cl  Cl14570  1  0.46666667  0.80000000  0.20000000  1
  Cl  Cl14571  1  0.46666667  0.80000000  0.40000000  1
  Cl  Cl14572  1  0.46666667  0.80000000  0.60000000  1
  Cl  Cl14573  1  0.46666667  0.80000000  0.80000000  1
  Cl  Cl14574  1  0.66666667  0.00000000  0.00000000  1
  Cl  Cl14575  1  0.66666667  0.00000000  0.20000000  1
  Cl  Cl14576  1  0.66666667  0.00000000  0.40000000  1
  Cl  Cl14577  1  0.66666667  0.00000000  0.60000000  1
  Cl  Cl14578  1  0.66666667  0.00000000  0.80000000  1
  Cl  Cl14579  1  0.66666667  0.20000000  0.00000000  1
  Cl  Cl14580  1  0.66666667  0.20000000  0.20000000  1
  Cl  Cl14581  1  0.66666667  0.20000000  0.40000000  1
  Cl  Cl14582  1  0.66666667  0.20000000  0.60000000  1
  Cl  Cl14583  1  0.66666667  0.20000000  0.80000000  1
  Cl  Cl14584  1  0.66666667  0.40000000  0.00000000  1
  Cl  Cl14585  1  0.66666667  0.40000000  0.20000000  1
  Cl  Cl14586  1  0.66666667  0.40000000  0.40000000  1
  Cl  Cl14587  1  0.66666667  0.40000000  0.60000000  1
  Cl  Cl14588  1  0.66666667  0.40000000  0.80000000  1
  Cl  Cl14589  1  0.66666667  0.60000000  0.00000000  1
  Cl  Cl14590  1  0.66666667  0.60000000  0.20000000  1
  Cl  Cl14591  1  0.66666667  0.60000000  0.40000000  1
  Cl  Cl14592  1  0.66666667  0.60000000  0.60000000  1
  Cl  Cl14593  1  0.66666667  0.60000000  0.80000000  1
  Cl  Cl14594  1  0.66666667  0.80000000  0.00000000  1
  Cl  Cl14595  1  0.66666667  0.80000000  0.20000000  1
  Cl  Cl14596  1  0.66666667  0.80000000  0.40000000  1
  Cl  Cl14597  1  0.66666667  0.80000000  0.60000000  1
  Cl  Cl14598  1  0.66666667  0.80000000  0.80000000  1
  Cl  Cl14599  1  0.86666667  0.00000000  0.00000000  1
  Cl  Cl14600  1  0.86666667  0.00000000  0.20000000  1
  Cl  Cl14601  1  0.86666667  0.00000000  0.40000000  1
  Cl  Cl14602  1  0.86666667  0.00000000  0.60000000  1
  Cl  Cl14603  1  0.86666667  0.00000000  0.80000000  1
  Cl  Cl14604  1  0.86666667  0.20000000  0.00000000  1
  Cl  Cl14605  1  0.86666667  0.20000000  0.20000000  1
  Cl  Cl14606  1  0.86666667  0.20000000  0.40000000  1
  Cl  Cl14607  1  0.86666667  0.20000000  0.60000000  1
  Cl  Cl14608  1  0.86666667  0.20000000  0.80000000  1
  Cl  Cl14609  1  0.86666667  0.40000000  0.00000000  1
  Cl  Cl14610  1  0.86666667  0.40000000  0.20000000  1
  Cl  Cl14611  1  0.86666667  0.40000000  0.40000000  1
  Cl  Cl14612  1  0.86666667  0.40000000  0.60000000  1
  Cl  Cl14613  1  0.86666667  0.40000000  0.80000000  1
  Cl  Cl14614  1  0.86666667  0.60000000  0.00000000  1
  Cl  Cl14615  1  0.86666667  0.60000000  0.20000000  1
  Cl  Cl14616  1  0.86666667  0.60000000  0.40000000  1
  Cl  Cl14617  1  0.86666667  0.60000000  0.60000000  1
  Cl  Cl14618  1  0.86666667  0.60000000  0.80000000  1
  Cl  Cl14619  1  0.86666667  0.80000000  0.00000000  1
  Cl  Cl14620  1  0.86666667  0.80000000  0.20000000  1
  Cl  Cl14621  1  0.86666667  0.80000000  0.40000000  1
  Cl  Cl14622  1  0.86666667  0.80000000  0.60000000  1
  Cl  Cl14623  1  0.86666667  0.80000000  0.80000000  1
  Cl  Cl14624  1  0.06666667  0.00000000  0.06666667  1
  Cl  Cl14625  1  0.06666667  0.00000000  0.26666667  1
  Cl  Cl14626  1  0.06666667  0.00000000  0.46666667  1
  Cl  Cl14627  1  0.06666667  0.00000000  0.66666667  1
  Cl  Cl14628  1  0.06666667  0.00000000  0.86666667  1
  Cl  Cl14629  1  0.06666667  0.20000000  0.06666667  1
  Cl  Cl14630  1  0.06666667  0.20000000  0.26666667  1
  Cl  Cl14631  1  0.06666667  0.20000000  0.46666667  1
  Cl  Cl14632  1  0.06666667  0.20000000  0.66666667  1
  Cl  Cl14633  1  0.06666667  0.20000000  0.86666667  1
  Cl  Cl14634  1  0.06666667  0.40000000  0.06666667  1
  Cl  Cl14635  1  0.06666667  0.40000000  0.26666667  1
  Cl  Cl14636  1  0.06666667  0.40000000  0.46666667  1
  Cl  Cl14637  1  0.06666667  0.40000000  0.66666667  1
  Cl  Cl14638  1  0.06666667  0.40000000  0.86666667  1
  Cl  Cl14639  1  0.06666667  0.60000000  0.06666667  1
  Cl  Cl14640  1  0.06666667  0.60000000  0.26666667  1
  Cl  Cl14641  1  0.06666667  0.60000000  0.46666667  1
  Cl  Cl14642  1  0.06666667  0.60000000  0.66666667  1
  Cl  Cl14643  1  0.06666667  0.60000000  0.86666667  1
  Cl  Cl14644  1  0.06666667  0.80000000  0.06666667  1
  Cl  Cl14645  1  0.06666667  0.80000000  0.26666667  1
  Cl  Cl14646  1  0.06666667  0.80000000  0.46666667  1
  Cl  Cl14647  1  0.06666667  0.80000000  0.66666667  1
  Cl  Cl14648  1  0.06666667  0.80000000  0.86666667  1
  Cl  Cl14649  1  0.26666667  0.00000000  0.06666667  1
  Cl  Cl14650  1  0.26666667  0.00000000  0.26666667  1
  Cl  Cl14651  1  0.26666667  0.00000000  0.46666667  1
  Cl  Cl14652  1  0.26666667  0.00000000  0.66666667  1
  Cl  Cl14653  1  0.26666667  0.00000000  0.86666667  1
  Cl  Cl14654  1  0.26666667  0.20000000  0.06666667  1
  Cl  Cl14655  1  0.26666667  0.20000000  0.26666667  1
  Cl  Cl14656  1  0.26666667  0.20000000  0.46666667  1
  Cl  Cl14657  1  0.26666667  0.20000000  0.66666667  1
  Cl  Cl14658  1  0.26666667  0.20000000  0.86666667  1
  Cl  Cl14659  1  0.26666667  0.40000000  0.06666667  1
  Cl  Cl14660  1  0.26666667  0.40000000  0.26666667  1
  Cl  Cl14661  1  0.26666667  0.40000000  0.46666667  1
  Cl  Cl14662  1  0.26666667  0.40000000  0.66666667  1
  Cl  Cl14663  1  0.26666667  0.40000000  0.86666667  1
  Cl  Cl14664  1  0.26666667  0.60000000  0.06666667  1
  Cl  Cl14665  1  0.26666667  0.60000000  0.26666667  1
  Cl  Cl14666  1  0.26666667  0.60000000  0.46666667  1
  Cl  Cl14667  1  0.26666667  0.60000000  0.66666667  1
  Cl  Cl14668  1  0.26666667  0.60000000  0.86666667  1
  Cl  Cl14669  1  0.26666667  0.80000000  0.06666667  1
  Cl  Cl14670  1  0.26666667  0.80000000  0.26666667  1
  Cl  Cl14671  1  0.26666667  0.80000000  0.46666667  1
  Cl  Cl14672  1  0.26666667  0.80000000  0.66666667  1
  Cl  Cl14673  1  0.26666667  0.80000000  0.86666667  1
  Cl  Cl14674  1  0.46666667  0.00000000  0.06666667  1
  Cl  Cl14675  1  0.46666667  0.00000000  0.26666667  1
  Cl  Cl14676  1  0.46666667  0.00000000  0.46666667  1
  Cl  Cl14677  1  0.46666667  0.00000000  0.66666667  1
  Cl  Cl14678  1  0.46666667  0.00000000  0.86666667  1
  Cl  Cl14679  1  0.46666667  0.20000000  0.06666667  1
  Cl  Cl14680  1  0.46666667  0.20000000  0.26666667  1
  Cl  Cl14681  1  0.46666667  0.20000000  0.46666667  1
  Cl  Cl14682  1  0.46666667  0.20000000  0.66666667  1
  Cl  Cl14683  1  0.46666667  0.20000000  0.86666667  1
  Cl  Cl14684  1  0.46666667  0.40000000  0.06666667  1
  Cl  Cl14685  1  0.46666667  0.40000000  0.26666667  1
  Cl  Cl14686  1  0.46666667  0.40000000  0.46666667  1
  Cl  Cl14687  1  0.46666667  0.40000000  0.66666667  1
  Cl  Cl14688  1  0.46666667  0.40000000  0.86666667  1
  Cl  Cl14689  1  0.46666667  0.60000000  0.06666667  1
  Cl  Cl14690  1  0.46666667  0.60000000  0.26666667  1
  Cl  Cl14691  1  0.46666667  0.60000000  0.46666667  1
  Cl  Cl14692  1  0.46666667  0.60000000  0.66666667  1
  Cl  Cl14693  1  0.46666667  0.60000000  0.86666667  1
  Cl  Cl14694  1  0.46666667  0.80000000  0.06666667  1
  Cl  Cl14695  1  0.46666667  0.80000000  0.26666667  1
  Cl  Cl14696  1  0.46666667  0.80000000  0.46666667  1
  Cl  Cl14697  1  0.46666667  0.80000000  0.66666667  1
  Cl  Cl14698  1  0.46666667  0.80000000  0.86666667  1
  Cl  Cl14699  1  0.66666667  0.00000000  0.06666667  1
  Cl  Cl14700  1  0.66666667  0.00000000  0.26666667  1
  Cl  Cl14701  1  0.66666667  0.00000000  0.46666667  1
  Cl  Cl14702  1  0.66666667  0.00000000  0.66666667  1
  Cl  Cl14703  1  0.66666667  0.00000000  0.86666667  1
  Cl  Cl14704  1  0.66666667  0.20000000  0.06666667  1
  Cl  Cl14705  1  0.66666667  0.20000000  0.26666667  1
  Cl  Cl14706  1  0.66666667  0.20000000  0.46666667  1
  Cl  Cl14707  1  0.66666667  0.20000000  0.66666667  1
  Cl  Cl14708  1  0.66666667  0.20000000  0.86666667  1
  Cl  Cl14709  1  0.66666667  0.40000000  0.06666667  1
  Cl  Cl14710  1  0.66666667  0.40000000  0.26666667  1
  Cl  Cl14711  1  0.66666667  0.40000000  0.46666667  1
  Cl  Cl14712  1  0.66666667  0.40000000  0.66666667  1
  Cl  Cl14713  1  0.66666667  0.40000000  0.86666667  1
  Cl  Cl14714  1  0.66666667  0.60000000  0.06666667  1
  Cl  Cl14715  1  0.66666667  0.60000000  0.26666667  1
  Cl  Cl14716  1  0.66666667  0.60000000  0.46666667  1
  Cl  Cl14717  1  0.66666667  0.60000000  0.66666667  1
  Cl  Cl14718  1  0.66666667  0.60000000  0.86666667  1
  Cl  Cl14719  1  0.66666667  0.80000000  0.06666667  1
  Cl  Cl14720  1  0.66666667  0.80000000  0.26666667  1
  Cl  Cl14721  1  0.66666667  0.80000000  0.46666667  1
  Cl  Cl14722  1  0.66666667  0.80000000  0.66666667  1
  Cl  Cl14723  1  0.66666667  0.80000000  0.86666667  1
  Cl  Cl14724  1  0.86666667  0.00000000  0.06666667  1
  Cl  Cl14725  1  0.86666667  0.00000000  0.26666667  1
  Cl  Cl14726  1  0.86666667  0.00000000  0.46666667  1
  Cl  Cl14727  1  0.86666667  0.00000000  0.66666667  1
  Cl  Cl14728  1  0.86666667  0.00000000  0.86666667  1
  Cl  Cl14729  1  0.86666667  0.20000000  0.06666667  1
  Cl  Cl14730  1  0.86666667  0.20000000  0.26666667  1
  Cl  Cl14731  1  0.86666667  0.20000000  0.46666667  1
  Cl  Cl14732  1  0.86666667  0.20000000  0.66666667  1
  Cl  Cl14733  1  0.86666667  0.20000000  0.86666667  1
  Cl  Cl14734  1  0.86666667  0.40000000  0.06666667  1
  Cl  Cl14735  1  0.86666667  0.40000000  0.26666667  1
  Cl  Cl14736  1  0.86666667  0.40000000  0.46666667  1
  Cl  Cl14737  1  0.86666667  0.40000000  0.66666667  1
  Cl  Cl14738  1  0.86666667  0.40000000  0.86666667  1
  Cl  Cl14739  1  0.86666667  0.60000000  0.06666667  1
  Cl  Cl14740  1  0.86666667  0.60000000  0.26666667  1
  Cl  Cl14741  1  0.86666667  0.60000000  0.46666667  1
  Cl  Cl14742  1  0.86666667  0.60000000  0.66666667  1
  Cl  Cl14743  1  0.86666667  0.60000000  0.86666667  1
  Cl  Cl14744  1  0.86666667  0.80000000  0.06666667  1
  Cl  Cl14745  1  0.86666667  0.80000000  0.26666667  1
  Cl  Cl14746  1  0.86666667  0.80000000  0.46666667  1
  Cl  Cl14747  1  0.86666667  0.80000000  0.66666667  1
  Cl  Cl14748  1  0.86666667  0.80000000  0.86666667  1
  Cl  Cl14749  1  0.06666667  0.00000000  0.13333333  1
  Cl  Cl14750  1  0.06666667  0.00000000  0.33333333  1
  Cl  Cl14751  1  0.06666667  0.00000000  0.53333333  1
  Cl  Cl14752  1  0.06666667  0.00000000  0.73333333  1
  Cl  Cl14753  1  0.06666667  0.00000000  0.93333333  1
  Cl  Cl14754  1  0.06666667  0.20000000  0.13333333  1
  Cl  Cl14755  1  0.06666667  0.20000000  0.33333333  1
  Cl  Cl14756  1  0.06666667  0.20000000  0.53333333  1
  Cl  Cl14757  1  0.06666667  0.20000000  0.73333333  1
  Cl  Cl14758  1  0.06666667  0.20000000  0.93333333  1
  Cl  Cl14759  1  0.06666667  0.40000000  0.13333333  1
  Cl  Cl14760  1  0.06666667  0.40000000  0.33333333  1
  Cl  Cl14761  1  0.06666667  0.40000000  0.53333333  1
  Cl  Cl14762  1  0.06666667  0.40000000  0.73333333  1
  Cl  Cl14763  1  0.06666667  0.40000000  0.93333333  1
  Cl  Cl14764  1  0.06666667  0.60000000  0.13333333  1
  Cl  Cl14765  1  0.06666667  0.60000000  0.33333333  1
  Cl  Cl14766  1  0.06666667  0.60000000  0.53333333  1
  Cl  Cl14767  1  0.06666667  0.60000000  0.73333333  1
  Cl  Cl14768  1  0.06666667  0.60000000  0.93333333  1
  Cl  Cl14769  1  0.06666667  0.80000000  0.13333333  1
  Cl  Cl14770  1  0.06666667  0.80000000  0.33333333  1
  Cl  Cl14771  1  0.06666667  0.80000000  0.53333333  1
  Cl  Cl14772  1  0.06666667  0.80000000  0.73333333  1
  Cl  Cl14773  1  0.06666667  0.80000000  0.93333333  1
  Cl  Cl14774  1  0.26666667  0.00000000  0.13333333  1
  Cl  Cl14775  1  0.26666667  0.00000000  0.33333333  1
  Cl  Cl14776  1  0.26666667  0.00000000  0.53333333  1
  Cl  Cl14777  1  0.26666667  0.00000000  0.73333333  1
  Cl  Cl14778  1  0.26666667  0.00000000  0.93333333  1
  Cl  Cl14779  1  0.26666667  0.20000000  0.13333333  1
  Cl  Cl14780  1  0.26666667  0.20000000  0.33333333  1
  Cl  Cl14781  1  0.26666667  0.20000000  0.53333333  1
  Cl  Cl14782  1  0.26666667  0.20000000  0.73333333  1
  Cl  Cl14783  1  0.26666667  0.20000000  0.93333333  1
  Cl  Cl14784  1  0.26666667  0.40000000  0.13333333  1
  Cl  Cl14785  1  0.26666667  0.40000000  0.33333333  1
  Cl  Cl14786  1  0.26666667  0.40000000  0.53333333  1
  Cl  Cl14787  1  0.26666667  0.40000000  0.73333333  1
  Cl  Cl14788  1  0.26666667  0.40000000  0.93333333  1
  Cl  Cl14789  1  0.26666667  0.60000000  0.13333333  1
  Cl  Cl14790  1  0.26666667  0.60000000  0.33333333  1
  Cl  Cl14791  1  0.26666667  0.60000000  0.53333333  1
  Cl  Cl14792  1  0.26666667  0.60000000  0.73333333  1
  Cl  Cl14793  1  0.26666667  0.60000000  0.93333333  1
  Cl  Cl14794  1  0.26666667  0.80000000  0.13333333  1
  Cl  Cl14795  1  0.26666667  0.80000000  0.33333333  1
  Cl  Cl14796  1  0.26666667  0.80000000  0.53333333  1
  Cl  Cl14797  1  0.26666667  0.80000000  0.73333333  1
  Cl  Cl14798  1  0.26666667  0.80000000  0.93333333  1
  Cl  Cl14799  1  0.46666667  0.00000000  0.13333333  1
  Cl  Cl14800  1  0.46666667  0.00000000  0.33333333  1
  Cl  Cl14801  1  0.46666667  0.00000000  0.53333333  1
  Cl  Cl14802  1  0.46666667  0.00000000  0.73333333  1
  Cl  Cl14803  1  0.46666667  0.00000000  0.93333333  1
  Cl  Cl14804  1  0.46666667  0.20000000  0.13333333  1
  Cl  Cl14805  1  0.46666667  0.20000000  0.33333333  1
  Cl  Cl14806  1  0.46666667  0.20000000  0.53333333  1
  Cl  Cl14807  1  0.46666667  0.20000000  0.73333333  1
  Cl  Cl14808  1  0.46666667  0.20000000  0.93333333  1
  Cl  Cl14809  1  0.46666667  0.40000000  0.13333333  1
  Cl  Cl14810  1  0.46666667  0.40000000  0.33333333  1
  Cl  Cl14811  1  0.46666667  0.40000000  0.53333333  1
  Cl  Cl14812  1  0.46666667  0.40000000  0.73333333  1
  Cl  Cl14813  1  0.46666667  0.40000000  0.93333333  1
  Cl  Cl14814  1  0.46666667  0.60000000  0.13333333  1
  Cl  Cl14815  1  0.46666667  0.60000000  0.33333333  1
  Cl  Cl14816  1  0.46666667  0.60000000  0.53333333  1
  Cl  Cl14817  1  0.46666667  0.60000000  0.73333333  1
  Cl  Cl14818  1  0.46666667  0.60000000  0.93333333  1
  Cl  Cl14819  1  0.46666667  0.80000000  0.13333333  1
  Cl  Cl14820  1  0.46666667  0.80000000  0.33333333  1
  Cl  Cl14821  1  0.46666667  0.80000000  0.53333333  1
  Cl  Cl14822  1  0.46666667  0.80000000  0.73333333  1
  Cl  Cl14823  1  0.46666667  0.80000000  0.93333333  1
  Cl  Cl14824  1  0.66666667  0.00000000  0.13333333  1
  Cl  Cl14825  1  0.66666667  0.00000000  0.33333333  1
  Cl  Cl14826  1  0.66666667  0.00000000  0.53333333  1
  Cl  Cl14827  1  0.66666667  0.00000000  0.73333333  1
  Cl  Cl14828  1  0.66666667  0.00000000  0.93333333  1
  Cl  Cl14829  1  0.66666667  0.20000000  0.13333333  1
  Cl  Cl14830  1  0.66666667  0.20000000  0.33333333  1
  Cl  Cl14831  1  0.66666667  0.20000000  0.53333333  1
  Cl  Cl14832  1  0.66666667  0.20000000  0.73333333  1
  Cl  Cl14833  1  0.66666667  0.20000000  0.93333333  1
  Cl  Cl14834  1  0.66666667  0.40000000  0.13333333  1
  Cl  Cl14835  1  0.66666667  0.40000000  0.33333333  1
  Cl  Cl14836  1  0.66666667  0.40000000  0.53333333  1
  Cl  Cl14837  1  0.66666667  0.40000000  0.73333333  1
  Cl  Cl14838  1  0.66666667  0.40000000  0.93333333  1
  Cl  Cl14839  1  0.66666667  0.60000000  0.13333333  1
  Cl  Cl14840  1  0.66666667  0.60000000  0.33333333  1
  Cl  Cl14841  1  0.66666667  0.60000000  0.53333333  1
  Cl  Cl14842  1  0.66666667  0.60000000  0.73333333  1
  Cl  Cl14843  1  0.66666667  0.60000000  0.93333333  1
  Cl  Cl14844  1  0.66666667  0.80000000  0.13333333  1
  Cl  Cl14845  1  0.66666667  0.80000000  0.33333333  1
  Cl  Cl14846  1  0.66666667  0.80000000  0.53333333  1
  Cl  Cl14847  1  0.66666667  0.80000000  0.73333333  1
  Cl  Cl14848  1  0.66666667  0.80000000  0.93333333  1
  Cl  Cl14849  1  0.86666667  0.00000000  0.13333333  1
  Cl  Cl14850  1  0.86666667  0.00000000  0.33333333  1
  Cl  Cl14851  1  0.86666667  0.00000000  0.53333333  1
  Cl  Cl14852  1  0.86666667  0.00000000  0.73333333  1
  Cl  Cl14853  1  0.86666667  0.00000000  0.93333333  1
  Cl  Cl14854  1  0.86666667  0.20000000  0.13333333  1
  Cl  Cl14855  1  0.86666667  0.20000000  0.33333333  1
  Cl  Cl14856  1  0.86666667  0.20000000  0.53333333  1
  Cl  Cl14857  1  0.86666667  0.20000000  0.73333333  1
  Cl  Cl14858  1  0.86666667  0.20000000  0.93333333  1
  Cl  Cl14859  1  0.86666667  0.40000000  0.13333333  1
  Cl  Cl14860  1  0.86666667  0.40000000  0.33333333  1
  Cl  Cl14861  1  0.86666667  0.40000000  0.53333333  1
  Cl  Cl14862  1  0.86666667  0.40000000  0.73333333  1
  Cl  Cl14863  1  0.86666667  0.40000000  0.93333333  1
  Cl  Cl14864  1  0.86666667  0.60000000  0.13333333  1
  Cl  Cl14865  1  0.86666667  0.60000000  0.33333333  1
  Cl  Cl14866  1  0.86666667  0.60000000  0.53333333  1
  Cl  Cl14867  1  0.86666667  0.60000000  0.73333333  1
  Cl  Cl14868  1  0.86666667  0.60000000  0.93333333  1
  Cl  Cl14869  1  0.86666667  0.80000000  0.13333333  1
  Cl  Cl14870  1  0.86666667  0.80000000  0.33333333  1
  Cl  Cl14871  1  0.86666667  0.80000000  0.53333333  1
  Cl  Cl14872  1  0.86666667  0.80000000  0.73333333  1
  Cl  Cl14873  1  0.86666667  0.80000000  0.93333333  1
  Cl  Cl14874  1  0.06666667  0.06666667  0.00000000  1
  Cl  Cl14875  1  0.06666667  0.06666667  0.20000000  1
  Cl  Cl14876  1  0.06666667  0.06666667  0.40000000  1
  Cl  Cl14877  1  0.06666667  0.06666667  0.60000000  1
  Cl  Cl14878  1  0.06666667  0.06666667  0.80000000  1
  Cl  Cl14879  1  0.06666667  0.26666667  0.00000000  1
  Cl  Cl14880  1  0.06666667  0.26666667  0.20000000  1
  Cl  Cl14881  1  0.06666667  0.26666667  0.40000000  1
  Cl  Cl14882  1  0.06666667  0.26666667  0.60000000  1
  Cl  Cl14883  1  0.06666667  0.26666667  0.80000000  1
  Cl  Cl14884  1  0.06666667  0.46666667  0.00000000  1
  Cl  Cl14885  1  0.06666667  0.46666667  0.20000000  1
  Cl  Cl14886  1  0.06666667  0.46666667  0.40000000  1
  Cl  Cl14887  1  0.06666667  0.46666667  0.60000000  1
  Cl  Cl14888  1  0.06666667  0.46666667  0.80000000  1
  Cl  Cl14889  1  0.06666667  0.66666667  0.00000000  1
  Cl  Cl14890  1  0.06666667  0.66666667  0.20000000  1
  Cl  Cl14891  1  0.06666667  0.66666667  0.40000000  1
  Cl  Cl14892  1  0.06666667  0.66666667  0.60000000  1
  Cl  Cl14893  1  0.06666667  0.66666667  0.80000000  1
  Cl  Cl14894  1  0.06666667  0.86666667  0.00000000  1
  Cl  Cl14895  1  0.06666667  0.86666667  0.20000000  1
  Cl  Cl14896  1  0.06666667  0.86666667  0.40000000  1
  Cl  Cl14897  1  0.06666667  0.86666667  0.60000000  1
  Cl  Cl14898  1  0.06666667  0.86666667  0.80000000  1
  Cl  Cl14899  1  0.26666667  0.06666667  0.00000000  1
  Cl  Cl14900  1  0.26666667  0.06666667  0.20000000  1
  Cl  Cl14901  1  0.26666667  0.06666667  0.40000000  1
  Cl  Cl14902  1  0.26666667  0.06666667  0.60000000  1
  Cl  Cl14903  1  0.26666667  0.06666667  0.80000000  1
  Cl  Cl14904  1  0.26666667  0.26666667  0.00000000  1
  Cl  Cl14905  1  0.26666667  0.26666667  0.20000000  1
  Cl  Cl14906  1  0.26666667  0.26666667  0.40000000  1
  Cl  Cl14907  1  0.26666667  0.26666667  0.60000000  1
  Cl  Cl14908  1  0.26666667  0.26666667  0.80000000  1
  Cl  Cl14909  1  0.26666667  0.46666667  0.00000000  1
  Cl  Cl14910  1  0.26666667  0.46666667  0.20000000  1
  Cl  Cl14911  1  0.26666667  0.46666667  0.40000000  1
  Cl  Cl14912  1  0.26666667  0.46666667  0.60000000  1
  Cl  Cl14913  1  0.26666667  0.46666667  0.80000000  1
  Cl  Cl14914  1  0.26666667  0.66666667  0.00000000  1
  Cl  Cl14915  1  0.26666667  0.66666667  0.20000000  1
  Cl  Cl14916  1  0.26666667  0.66666667  0.40000000  1
  Cl  Cl14917  1  0.26666667  0.66666667  0.60000000  1
  Cl  Cl14918  1  0.26666667  0.66666667  0.80000000  1
  Cl  Cl14919  1  0.26666667  0.86666667  0.00000000  1
  Cl  Cl14920  1  0.26666667  0.86666667  0.20000000  1
  Cl  Cl14921  1  0.26666667  0.86666667  0.40000000  1
  Cl  Cl14922  1  0.26666667  0.86666667  0.60000000  1
  Cl  Cl14923  1  0.26666667  0.86666667  0.80000000  1
  Cl  Cl14924  1  0.46666667  0.06666667  0.00000000  1
  Cl  Cl14925  1  0.46666667  0.06666667  0.20000000  1
  Cl  Cl14926  1  0.46666667  0.06666667  0.40000000  1
  Cl  Cl14927  1  0.46666667  0.06666667  0.60000000  1
  Cl  Cl14928  1  0.46666667  0.06666667  0.80000000  1
  Cl  Cl14929  1  0.46666667  0.26666667  0.00000000  1
  Cl  Cl14930  1  0.46666667  0.26666667  0.20000000  1
  Cl  Cl14931  1  0.46666667  0.26666667  0.40000000  1
  Cl  Cl14932  1  0.46666667  0.26666667  0.60000000  1
  Cl  Cl14933  1  0.46666667  0.26666667  0.80000000  1
  Cl  Cl14934  1  0.46666667  0.46666667  0.00000000  1
  Cl  Cl14935  1  0.46666667  0.46666667  0.20000000  1
  Cl  Cl14936  1  0.46666667  0.46666667  0.40000000  1
  Cl  Cl14937  1  0.46666667  0.46666667  0.60000000  1
  Cl  Cl14938  1  0.46666667  0.46666667  0.80000000  1
  Cl  Cl14939  1  0.46666667  0.66666667  0.00000000  1
  Cl  Cl14940  1  0.46666667  0.66666667  0.20000000  1
  Cl  Cl14941  1  0.46666667  0.66666667  0.40000000  1
  Cl  Cl14942  1  0.46666667  0.66666667  0.60000000  1
  Cl  Cl14943  1  0.46666667  0.66666667  0.80000000  1
  Cl  Cl14944  1  0.46666667  0.86666667  0.00000000  1
  Cl  Cl14945  1  0.46666667  0.86666667  0.20000000  1
  Cl  Cl14946  1  0.46666667  0.86666667  0.40000000  1
  Cl  Cl14947  1  0.46666667  0.86666667  0.60000000  1
  Cl  Cl14948  1  0.46666667  0.86666667  0.80000000  1
  Cl  Cl14949  1  0.66666667  0.06666667  0.00000000  1
  Cl  Cl14950  1  0.66666667  0.06666667  0.20000000  1
  Cl  Cl14951  1  0.66666667  0.06666667  0.40000000  1
  Cl  Cl14952  1  0.66666667  0.06666667  0.60000000  1
  Cl  Cl14953  1  0.66666667  0.06666667  0.80000000  1
  Cl  Cl14954  1  0.66666667  0.26666667  0.00000000  1
  Cl  Cl14955  1  0.66666667  0.26666667  0.20000000  1
  Cl  Cl14956  1  0.66666667  0.26666667  0.40000000  1
  Cl  Cl14957  1  0.66666667  0.26666667  0.60000000  1
  Cl  Cl14958  1  0.66666667  0.26666667  0.80000000  1
  Cl  Cl14959  1  0.66666667  0.46666667  0.00000000  1
  Cl  Cl14960  1  0.66666667  0.46666667  0.20000000  1
  Cl  Cl14961  1  0.66666667  0.46666667  0.40000000  1
  Cl  Cl14962  1  0.66666667  0.46666667  0.60000000  1
  Cl  Cl14963  1  0.66666667  0.46666667  0.80000000  1
  Cl  Cl14964  1  0.66666667  0.66666667  0.00000000  1
  Cl  Cl14965  1  0.66666667  0.66666667  0.20000000  1
  Cl  Cl14966  1  0.66666667  0.66666667  0.40000000  1
  Cl  Cl14967  1  0.66666667  0.66666667  0.60000000  1
  Cl  Cl14968  1  0.66666667  0.66666667  0.80000000  1
  Cl  Cl14969  1  0.66666667  0.86666667  0.00000000  1
  Cl  Cl14970  1  0.66666667  0.86666667  0.20000000  1
  Cl  Cl14971  1  0.66666667  0.86666667  0.40000000  1
  Cl  Cl14972  1  0.66666667  0.86666667  0.60000000  1
  Cl  Cl14973  1  0.66666667  0.86666667  0.80000000  1
  Cl  Cl14974  1  0.86666667  0.06666667  0.00000000  1
  Cl  Cl14975  1  0.86666667  0.06666667  0.20000000  1
  Cl  Cl14976  1  0.86666667  0.06666667  0.40000000  1
  Cl  Cl14977  1  0.86666667  0.06666667  0.60000000  1
  Cl  Cl14978  1  0.86666667  0.06666667  0.80000000  1
  Cl  Cl14979  1  0.86666667  0.26666667  0.00000000  1
  Cl  Cl14980  1  0.86666667  0.26666667  0.20000000  1
  Cl  Cl14981  1  0.86666667  0.26666667  0.40000000  1
  Cl  Cl14982  1  0.86666667  0.26666667  0.60000000  1
  Cl  Cl14983  1  0.86666667  0.26666667  0.80000000  1
  Cl  Cl14984  1  0.86666667  0.46666667  0.00000000  1
  Cl  Cl14985  1  0.86666667  0.46666667  0.20000000  1
  Cl  Cl14986  1  0.86666667  0.46666667  0.40000000  1
  Cl  Cl14987  1  0.86666667  0.46666667  0.60000000  1
  Cl  Cl14988  1  0.86666667  0.46666667  0.80000000  1
  Cl  Cl14989  1  0.86666667  0.66666667  0.00000000  1
  Cl  Cl14990  1  0.86666667  0.66666667  0.20000000  1
  Cl  Cl14991  1  0.86666667  0.66666667  0.40000000  1
  Cl  Cl14992  1  0.86666667  0.66666667  0.60000000  1
  Cl  Cl14993  1  0.86666667  0.66666667  0.80000000  1
  Cl  Cl14994  1  0.86666667  0.86666667  0.00000000  1
  Cl  Cl14995  1  0.86666667  0.86666667  0.20000000  1
  Cl  Cl14996  1  0.86666667  0.86666667  0.40000000  1
  Cl  Cl14997  1  0.86666667  0.86666667  0.60000000  1
  Cl  Cl14998  1  0.86666667  0.86666667  0.80000000  1
  Cl  Cl14999  1  0.06666667  0.06666667  0.06666667  1
  Cl  Cl15000  1  0.06666667  0.06666667  0.26666667  1
  Cl  Cl15001  1  0.06666667  0.06666667  0.46666667  1
  Cl  Cl15002  1  0.06666667  0.06666667  0.66666667  1
  Cl  Cl15003  1  0.06666667  0.06666667  0.86666667  1
  Cl  Cl15004  1  0.06666667  0.26666667  0.06666667  1
  Cl  Cl15005  1  0.06666667  0.26666667  0.26666667  1
  Cl  Cl15006  1  0.06666667  0.26666667  0.46666667  1
  Cl  Cl15007  1  0.06666667  0.26666667  0.66666667  1
  Cl  Cl15008  1  0.06666667  0.26666667  0.86666667  1
  Cl  Cl15009  1  0.06666667  0.46666667  0.06666667  1
  Cl  Cl15010  1  0.06666667  0.46666667  0.26666667  1
  Cl  Cl15011  1  0.06666667  0.46666667  0.46666667  1
  Cl  Cl15012  1  0.06666667  0.46666667  0.66666667  1
  Cl  Cl15013  1  0.06666667  0.46666667  0.86666667  1
  Cl  Cl15014  1  0.06666667  0.66666667  0.06666667  1
  Cl  Cl15015  1  0.06666667  0.66666667  0.26666667  1
  Cl  Cl15016  1  0.06666667  0.66666667  0.46666667  1
  Cl  Cl15017  1  0.06666667  0.66666667  0.66666667  1
  Cl  Cl15018  1  0.06666667  0.66666667  0.86666667  1
  Cl  Cl15019  1  0.06666667  0.86666667  0.06666667  1
  Cl  Cl15020  1  0.06666667  0.86666667  0.26666667  1
  Cl  Cl15021  1  0.06666667  0.86666667  0.46666667  1
  Cl  Cl15022  1  0.06666667  0.86666667  0.66666667  1
  Cl  Cl15023  1  0.06666667  0.86666667  0.86666667  1
  Cl  Cl15024  1  0.26666667  0.06666667  0.06666667  1
  Cl  Cl15025  1  0.26666667  0.06666667  0.26666667  1
  Cl  Cl15026  1  0.26666667  0.06666667  0.46666667  1
  Cl  Cl15027  1  0.26666667  0.06666667  0.66666667  1
  Cl  Cl15028  1  0.26666667  0.06666667  0.86666667  1
  Cl  Cl15029  1  0.26666667  0.26666667  0.06666667  1
  Cl  Cl15030  1  0.26666667  0.26666667  0.26666667  1
  Cl  Cl15031  1  0.26666667  0.26666667  0.46666667  1
  Cl  Cl15032  1  0.26666667  0.26666667  0.66666667  1
  Cl  Cl15033  1  0.26666667  0.26666667  0.86666667  1
  Cl  Cl15034  1  0.26666667  0.46666667  0.06666667  1
  Cl  Cl15035  1  0.26666667  0.46666667  0.26666667  1
  Cl  Cl15036  1  0.26666667  0.46666667  0.46666667  1
  Cl  Cl15037  1  0.26666667  0.46666667  0.66666667  1
  Cl  Cl15038  1  0.26666667  0.46666667  0.86666667  1
  Cl  Cl15039  1  0.26666667  0.66666667  0.06666667  1
  Cl  Cl15040  1  0.26666667  0.66666667  0.26666667  1
  Cl  Cl15041  1  0.26666667  0.66666667  0.46666667  1
  Cl  Cl15042  1  0.26666667  0.66666667  0.66666667  1
  Cl  Cl15043  1  0.26666667  0.66666667  0.86666667  1
  Cl  Cl15044  1  0.26666667  0.86666667  0.06666667  1
  Cl  Cl15045  1  0.26666667  0.86666667  0.26666667  1
  Cl  Cl15046  1  0.26666667  0.86666667  0.46666667  1
  Cl  Cl15047  1  0.26666667  0.86666667  0.66666667  1
  Cl  Cl15048  1  0.26666667  0.86666667  0.86666667  1
  Cl  Cl15049  1  0.46666667  0.06666667  0.06666667  1
  Cl  Cl15050  1  0.46666667  0.06666667  0.26666667  1
  Cl  Cl15051  1  0.46666667  0.06666667  0.46666667  1
  Cl  Cl15052  1  0.46666667  0.06666667  0.66666667  1
  Cl  Cl15053  1  0.46666667  0.06666667  0.86666667  1
  Cl  Cl15054  1  0.46666667  0.26666667  0.06666667  1
  Cl  Cl15055  1  0.46666667  0.26666667  0.26666667  1
  Cl  Cl15056  1  0.46666667  0.26666667  0.46666667  1
  Cl  Cl15057  1  0.46666667  0.26666667  0.66666667  1
  Cl  Cl15058  1  0.46666667  0.26666667  0.86666667  1
  Cl  Cl15059  1  0.46666667  0.46666667  0.06666667  1
  Cl  Cl15060  1  0.46666667  0.46666667  0.26666667  1
  Cl  Cl15061  1  0.46666667  0.46666667  0.46666667  1
  Cl  Cl15062  1  0.46666667  0.46666667  0.66666667  1
  Cl  Cl15063  1  0.46666667  0.46666667  0.86666667  1
  Cl  Cl15064  1  0.46666667  0.66666667  0.06666667  1
  Cl  Cl15065  1  0.46666667  0.66666667  0.26666667  1
  Cl  Cl15066  1  0.46666667  0.66666667  0.46666667  1
  Cl  Cl15067  1  0.46666667  0.66666667  0.66666667  1
  Cl  Cl15068  1  0.46666667  0.66666667  0.86666667  1
  Cl  Cl15069  1  0.46666667  0.86666667  0.06666667  1
  Cl  Cl15070  1  0.46666667  0.86666667  0.26666667  1
  Cl  Cl15071  1  0.46666667  0.86666667  0.46666667  1
  Cl  Cl15072  1  0.46666667  0.86666667  0.66666667  1
  Cl  Cl15073  1  0.46666667  0.86666667  0.86666667  1
  Cl  Cl15074  1  0.66666667  0.06666667  0.06666667  1
  Cl  Cl15075  1  0.66666667  0.06666667  0.26666667  1
  Cl  Cl15076  1  0.66666667  0.06666667  0.46666667  1
  Cl  Cl15077  1  0.66666667  0.06666667  0.66666667  1
  Cl  Cl15078  1  0.66666667  0.06666667  0.86666667  1
  Cl  Cl15079  1  0.66666667  0.26666667  0.06666667  1
  Cl  Cl15080  1  0.66666667  0.26666667  0.26666667  1
  Cl  Cl15081  1  0.66666667  0.26666667  0.46666667  1
  Cl  Cl15082  1  0.66666667  0.26666667  0.66666667  1
  Cl  Cl15083  1  0.66666667  0.26666667  0.86666667  1
  Cl  Cl15084  1  0.66666667  0.46666667  0.06666667  1
  Cl  Cl15085  1  0.66666667  0.46666667  0.26666667  1
  Cl  Cl15086  1  0.66666667  0.46666667  0.46666667  1
  Cl  Cl15087  1  0.66666667  0.46666667  0.66666667  1
  Cl  Cl15088  1  0.66666667  0.46666667  0.86666667  1
  Cl  Cl15089  1  0.66666667  0.66666667  0.06666667  1
  Cl  Cl15090  1  0.66666667  0.66666667  0.26666667  1
  Cl  Cl15091  1  0.66666667  0.66666667  0.46666667  1
  Cl  Cl15092  1  0.66666667  0.66666667  0.66666667  1
  Cl  Cl15093  1  0.66666667  0.66666667  0.86666667  1
  Cl  Cl15094  1  0.66666667  0.86666667  0.06666667  1
  Cl  Cl15095  1  0.66666667  0.86666667  0.26666667  1
  Cl  Cl15096  1  0.66666667  0.86666667  0.46666667  1
  Cl  Cl15097  1  0.66666667  0.86666667  0.66666667  1
  Cl  Cl15098  1  0.66666667  0.86666667  0.86666667  1
  Cl  Cl15099  1  0.86666667  0.06666667  0.06666667  1
  Cl  Cl15100  1  0.86666667  0.06666667  0.26666667  1
  Cl  Cl15101  1  0.86666667  0.06666667  0.46666667  1
  Cl  Cl15102  1  0.86666667  0.06666667  0.66666667  1
  Cl  Cl15103  1  0.86666667  0.06666667  0.86666667  1
  Cl  Cl15104  1  0.86666667  0.26666667  0.06666667  1
  Cl  Cl15105  1  0.86666667  0.26666667  0.26666667  1
  Cl  Cl15106  1  0.86666667  0.26666667  0.46666667  1
  Cl  Cl15107  1  0.86666667  0.26666667  0.66666667  1
  Cl  Cl15108  1  0.86666667  0.26666667  0.86666667  1
  Cl  Cl15109  1  0.86666667  0.46666667  0.06666667  1
  Cl  Cl15110  1  0.86666667  0.46666667  0.26666667  1
  Cl  Cl15111  1  0.86666667  0.46666667  0.46666667  1
  Cl  Cl15112  1  0.86666667  0.46666667  0.66666667  1
  Cl  Cl15113  1  0.86666667  0.46666667  0.86666667  1
  Cl  Cl15114  1  0.86666667  0.66666667  0.06666667  1
  Cl  Cl15115  1  0.86666667  0.66666667  0.26666667  1
  Cl  Cl15116  1  0.86666667  0.66666667  0.46666667  1
  Cl  Cl15117  1  0.86666667  0.66666667  0.66666667  1
  Cl  Cl15118  1  0.86666667  0.66666667  0.86666667  1
  Cl  Cl15119  1  0.86666667  0.86666667  0.06666667  1
  Cl  Cl15120  1  0.86666667  0.86666667  0.26666667  1
  Cl  Cl15121  1  0.86666667  0.86666667  0.46666667  1
  Cl  Cl15122  1  0.86666667  0.86666667  0.66666667  1
  Cl  Cl15123  1  0.86666667  0.86666667  0.86666667  1
  Cl  Cl15124  1  0.06666667  0.06666667  0.13333333  1
  Cl  Cl15125  1  0.06666667  0.06666667  0.33333333  1
  Cl  Cl15126  1  0.06666667  0.06666667  0.53333333  1
  Cl  Cl15127  1  0.06666667  0.06666667  0.73333333  1
  Cl  Cl15128  1  0.06666667  0.06666667  0.93333333  1
  Cl  Cl15129  1  0.06666667  0.26666667  0.13333333  1
  Cl  Cl15130  1  0.06666667  0.26666667  0.33333333  1
  Cl  Cl15131  1  0.06666667  0.26666667  0.53333333  1
  Cl  Cl15132  1  0.06666667  0.26666667  0.73333333  1
  Cl  Cl15133  1  0.06666667  0.26666667  0.93333333  1
  Cl  Cl15134  1  0.06666667  0.46666667  0.13333333  1
  Cl  Cl15135  1  0.06666667  0.46666667  0.33333333  1
  Cl  Cl15136  1  0.06666667  0.46666667  0.53333333  1
  Cl  Cl15137  1  0.06666667  0.46666667  0.73333333  1
  Cl  Cl15138  1  0.06666667  0.46666667  0.93333333  1
  Cl  Cl15139  1  0.06666667  0.66666667  0.13333333  1
  Cl  Cl15140  1  0.06666667  0.66666667  0.33333333  1
  Cl  Cl15141  1  0.06666667  0.66666667  0.53333333  1
  Cl  Cl15142  1  0.06666667  0.66666667  0.73333333  1
  Cl  Cl15143  1  0.06666667  0.66666667  0.93333333  1
  Cl  Cl15144  1  0.06666667  0.86666667  0.13333333  1
  Cl  Cl15145  1  0.06666667  0.86666667  0.33333333  1
  Cl  Cl15146  1  0.06666667  0.86666667  0.53333333  1
  Cl  Cl15147  1  0.06666667  0.86666667  0.73333333  1
  Cl  Cl15148  1  0.06666667  0.86666667  0.93333333  1
  Cl  Cl15149  1  0.26666667  0.06666667  0.13333333  1
  Cl  Cl15150  1  0.26666667  0.06666667  0.33333333  1
  Cl  Cl15151  1  0.26666667  0.06666667  0.53333333  1
  Cl  Cl15152  1  0.26666667  0.06666667  0.73333333  1
  Cl  Cl15153  1  0.26666667  0.06666667  0.93333333  1
  Cl  Cl15154  1  0.26666667  0.26666667  0.13333333  1
  Cl  Cl15155  1  0.26666667  0.26666667  0.33333333  1
  Cl  Cl15156  1  0.26666667  0.26666667  0.53333333  1
  Cl  Cl15157  1  0.26666667  0.26666667  0.73333333  1
  Cl  Cl15158  1  0.26666667  0.26666667  0.93333333  1
  Cl  Cl15159  1  0.26666667  0.46666667  0.13333333  1
  Cl  Cl15160  1  0.26666667  0.46666667  0.33333333  1
  Cl  Cl15161  1  0.26666667  0.46666667  0.53333333  1
  Cl  Cl15162  1  0.26666667  0.46666667  0.73333333  1
  Cl  Cl15163  1  0.26666667  0.46666667  0.93333333  1
  Cl  Cl15164  1  0.26666667  0.66666667  0.13333333  1
  Cl  Cl15165  1  0.26666667  0.66666667  0.33333333  1
  Cl  Cl15166  1  0.26666667  0.66666667  0.53333333  1
  Cl  Cl15167  1  0.26666667  0.66666667  0.73333333  1
  Cl  Cl15168  1  0.26666667  0.66666667  0.93333333  1
  Cl  Cl15169  1  0.26666667  0.86666667  0.13333333  1
  Cl  Cl15170  1  0.26666667  0.86666667  0.33333333  1
  Cl  Cl15171  1  0.26666667  0.86666667  0.53333333  1
  Cl  Cl15172  1  0.26666667  0.86666667  0.73333333  1
  Cl  Cl15173  1  0.26666667  0.86666667  0.93333333  1
  Cl  Cl15174  1  0.46666667  0.06666667  0.13333333  1
  Cl  Cl15175  1  0.46666667  0.06666667  0.33333333  1
  Cl  Cl15176  1  0.46666667  0.06666667  0.53333333  1
  Cl  Cl15177  1  0.46666667  0.06666667  0.73333333  1
  Cl  Cl15178  1  0.46666667  0.06666667  0.93333333  1
  Cl  Cl15179  1  0.46666667  0.26666667  0.13333333  1
  Cl  Cl15180  1  0.46666667  0.26666667  0.33333333  1
  Cl  Cl15181  1  0.46666667  0.26666667  0.53333333  1
  Cl  Cl15182  1  0.46666667  0.26666667  0.73333333  1
  Cl  Cl15183  1  0.46666667  0.26666667  0.93333333  1
  Cl  Cl15184  1  0.46666667  0.46666667  0.13333333  1
  Cl  Cl15185  1  0.46666667  0.46666667  0.33333333  1
  Cl  Cl15186  1  0.46666667  0.46666667  0.53333333  1
  Cl  Cl15187  1  0.46666667  0.46666667  0.73333333  1
  Cl  Cl15188  1  0.46666667  0.46666667  0.93333333  1
  Cl  Cl15189  1  0.46666667  0.66666667  0.13333333  1
  Cl  Cl15190  1  0.46666667  0.66666667  0.33333333  1
  Cl  Cl15191  1  0.46666667  0.66666667  0.53333333  1
  Cl  Cl15192  1  0.46666667  0.66666667  0.73333333  1
  Cl  Cl15193  1  0.46666667  0.66666667  0.93333333  1
  Cl  Cl15194  1  0.46666667  0.86666667  0.13333333  1
  Cl  Cl15195  1  0.46666667  0.86666667  0.33333333  1
  Cl  Cl15196  1  0.46666667  0.86666667  0.53333333  1
  Cl  Cl15197  1  0.46666667  0.86666667  0.73333333  1
  Cl  Cl15198  1  0.46666667  0.86666667  0.93333333  1
  Cl  Cl15199  1  0.66666667  0.06666667  0.13333333  1
  Cl  Cl15200  1  0.66666667  0.06666667  0.33333333  1
  Cl  Cl15201  1  0.66666667  0.06666667  0.53333333  1
  Cl  Cl15202  1  0.66666667  0.06666667  0.73333333  1
  Cl  Cl15203  1  0.66666667  0.06666667  0.93333333  1
  Cl  Cl15204  1  0.66666667  0.26666667  0.13333333  1
  Cl  Cl15205  1  0.66666667  0.26666667  0.33333333  1
  Cl  Cl15206  1  0.66666667  0.26666667  0.53333333  1
  Cl  Cl15207  1  0.66666667  0.26666667  0.73333333  1
  Cl  Cl15208  1  0.66666667  0.26666667  0.93333333  1
  Cl  Cl15209  1  0.66666667  0.46666667  0.13333333  1
  Cl  Cl15210  1  0.66666667  0.46666667  0.33333333  1
  Cl  Cl15211  1  0.66666667  0.46666667  0.53333333  1
  Cl  Cl15212  1  0.66666667  0.46666667  0.73333333  1
  Cl  Cl15213  1  0.66666667  0.46666667  0.93333333  1
  Cl  Cl15214  1  0.66666667  0.66666667  0.13333333  1
  Cl  Cl15215  1  0.66666667  0.66666667  0.33333333  1
  Cl  Cl15216  1  0.66666667  0.66666667  0.53333333  1
  Cl  Cl15217  1  0.66666667  0.66666667  0.73333333  1
  Cl  Cl15218  1  0.66666667  0.66666667  0.93333333  1
  Cl  Cl15219  1  0.66666667  0.86666667  0.13333333  1
  Cl  Cl15220  1  0.66666667  0.86666667  0.33333333  1
  Cl  Cl15221  1  0.66666667  0.86666667  0.53333333  1
  Cl  Cl15222  1  0.66666667  0.86666667  0.73333333  1
  Cl  Cl15223  1  0.66666667  0.86666667  0.93333333  1
  Cl  Cl15224  1  0.86666667  0.06666667  0.13333333  1
  Cl  Cl15225  1  0.86666667  0.06666667  0.33333333  1
  Cl  Cl15226  1  0.86666667  0.06666667  0.53333333  1
  Cl  Cl15227  1  0.86666667  0.06666667  0.73333333  1
  Cl  Cl15228  1  0.86666667  0.06666667  0.93333333  1
  Cl  Cl15229  1  0.86666667  0.26666667  0.13333333  1
  Cl  Cl15230  1  0.86666667  0.26666667  0.33333333  1
  Cl  Cl15231  1  0.86666667  0.26666667  0.53333333  1
  Cl  Cl15232  1  0.86666667  0.26666667  0.73333333  1
  Cl  Cl15233  1  0.86666667  0.26666667  0.93333333  1
  Cl  Cl15234  1  0.86666667  0.46666667  0.13333333  1
  Cl  Cl15235  1  0.86666667  0.46666667  0.33333333  1
  Cl  Cl15236  1  0.86666667  0.46666667  0.53333333  1
  Cl  Cl15237  1  0.86666667  0.46666667  0.73333333  1
  Cl  Cl15238  1  0.86666667  0.46666667  0.93333333  1
  Cl  Cl15239  1  0.86666667  0.66666667  0.13333333  1
  Cl  Cl15240  1  0.86666667  0.66666667  0.33333333  1
  Cl  Cl15241  1  0.86666667  0.66666667  0.53333333  1
  Cl  Cl15242  1  0.86666667  0.66666667  0.73333333  1
  Cl  Cl15243  1  0.86666667  0.66666667  0.93333333  1
  Cl  Cl15244  1  0.86666667  0.86666667  0.13333333  1
  Cl  Cl15245  1  0.86666667  0.86666667  0.33333333  1
  Cl  Cl15246  1  0.86666667  0.86666667  0.53333333  1
  Cl  Cl15247  1  0.86666667  0.86666667  0.73333333  1
  Cl  Cl15248  1  0.86666667  0.86666667  0.93333333  1
  Cl  Cl15249  1  0.06666667  0.13333333  0.00000000  1
  Cl  Cl15250  1  0.06666667  0.13333333  0.20000000  1
  Cl  Cl15251  1  0.06666667  0.13333333  0.40000000  1
  Cl  Cl15252  1  0.06666667  0.13333333  0.60000000  1
  Cl  Cl15253  1  0.06666667  0.13333333  0.80000000  1
  Cl  Cl15254  1  0.06666667  0.33333333  0.00000000  1
  Cl  Cl15255  1  0.06666667  0.33333333  0.20000000  1
  Cl  Cl15256  1  0.06666667  0.33333333  0.40000000  1
  Cl  Cl15257  1  0.06666667  0.33333333  0.60000000  1
  Cl  Cl15258  1  0.06666667  0.33333333  0.80000000  1
  Cl  Cl15259  1  0.06666667  0.53333333  0.00000000  1
  Cl  Cl15260  1  0.06666667  0.53333333  0.20000000  1
  Cl  Cl15261  1  0.06666667  0.53333333  0.40000000  1
  Cl  Cl15262  1  0.06666667  0.53333333  0.60000000  1
  Cl  Cl15263  1  0.06666667  0.53333333  0.80000000  1
  Cl  Cl15264  1  0.06666667  0.73333333  0.00000000  1
  Cl  Cl15265  1  0.06666667  0.73333333  0.20000000  1
  Cl  Cl15266  1  0.06666667  0.73333333  0.40000000  1
  Cl  Cl15267  1  0.06666667  0.73333333  0.60000000  1
  Cl  Cl15268  1  0.06666667  0.73333333  0.80000000  1
  Cl  Cl15269  1  0.06666667  0.93333333  0.00000000  1
  Cl  Cl15270  1  0.06666667  0.93333333  0.20000000  1
  Cl  Cl15271  1  0.06666667  0.93333333  0.40000000  1
  Cl  Cl15272  1  0.06666667  0.93333333  0.60000000  1
  Cl  Cl15273  1  0.06666667  0.93333333  0.80000000  1
  Cl  Cl15274  1  0.26666667  0.13333333  0.00000000  1
  Cl  Cl15275  1  0.26666667  0.13333333  0.20000000  1
  Cl  Cl15276  1  0.26666667  0.13333333  0.40000000  1
  Cl  Cl15277  1  0.26666667  0.13333333  0.60000000  1
  Cl  Cl15278  1  0.26666667  0.13333333  0.80000000  1
  Cl  Cl15279  1  0.26666667  0.33333333  0.00000000  1
  Cl  Cl15280  1  0.26666667  0.33333333  0.20000000  1
  Cl  Cl15281  1  0.26666667  0.33333333  0.40000000  1
  Cl  Cl15282  1  0.26666667  0.33333333  0.60000000  1
  Cl  Cl15283  1  0.26666667  0.33333333  0.80000000  1
  Cl  Cl15284  1  0.26666667  0.53333333  0.00000000  1
  Cl  Cl15285  1  0.26666667  0.53333333  0.20000000  1
  Cl  Cl15286  1  0.26666667  0.53333333  0.40000000  1
  Cl  Cl15287  1  0.26666667  0.53333333  0.60000000  1
  Cl  Cl15288  1  0.26666667  0.53333333  0.80000000  1
  Cl  Cl15289  1  0.26666667  0.73333333  0.00000000  1
  Cl  Cl15290  1  0.26666667  0.73333333  0.20000000  1
  Cl  Cl15291  1  0.26666667  0.73333333  0.40000000  1
  Cl  Cl15292  1  0.26666667  0.73333333  0.60000000  1
  Cl  Cl15293  1  0.26666667  0.73333333  0.80000000  1
  Cl  Cl15294  1  0.26666667  0.93333333  0.00000000  1
  Cl  Cl15295  1  0.26666667  0.93333333  0.20000000  1
  Cl  Cl15296  1  0.26666667  0.93333333  0.40000000  1
  Cl  Cl15297  1  0.26666667  0.93333333  0.60000000  1
  Cl  Cl15298  1  0.26666667  0.93333333  0.80000000  1
  Cl  Cl15299  1  0.46666667  0.13333333  0.00000000  1
  Cl  Cl15300  1  0.46666667  0.13333333  0.20000000  1
  Cl  Cl15301  1  0.46666667  0.13333333  0.40000000  1
  Cl  Cl15302  1  0.46666667  0.13333333  0.60000000  1
  Cl  Cl15303  1  0.46666667  0.13333333  0.80000000  1
  Cl  Cl15304  1  0.46666667  0.33333333  0.00000000  1
  Cl  Cl15305  1  0.46666667  0.33333333  0.20000000  1
  Cl  Cl15306  1  0.46666667  0.33333333  0.40000000  1
  Cl  Cl15307  1  0.46666667  0.33333333  0.60000000  1
  Cl  Cl15308  1  0.46666667  0.33333333  0.80000000  1
  Cl  Cl15309  1  0.46666667  0.53333333  0.00000000  1
  Cl  Cl15310  1  0.46666667  0.53333333  0.20000000  1
  Cl  Cl15311  1  0.46666667  0.53333333  0.40000000  1
  Cl  Cl15312  1  0.46666667  0.53333333  0.60000000  1
  Cl  Cl15313  1  0.46666667  0.53333333  0.80000000  1
  Cl  Cl15314  1  0.46666667  0.73333333  0.00000000  1
  Cl  Cl15315  1  0.46666667  0.73333333  0.20000000  1
  Cl  Cl15316  1  0.46666667  0.73333333  0.40000000  1
  Cl  Cl15317  1  0.46666667  0.73333333  0.60000000  1
  Cl  Cl15318  1  0.46666667  0.73333333  0.80000000  1
  Cl  Cl15319  1  0.46666667  0.93333333  0.00000000  1
  Cl  Cl15320  1  0.46666667  0.93333333  0.20000000  1
  Cl  Cl15321  1  0.46666667  0.93333333  0.40000000  1
  Cl  Cl15322  1  0.46666667  0.93333333  0.60000000  1
  Cl  Cl15323  1  0.46666667  0.93333333  0.80000000  1
  Cl  Cl15324  1  0.66666667  0.13333333  0.00000000  1
  Cl  Cl15325  1  0.66666667  0.13333333  0.20000000  1
  Cl  Cl15326  1  0.66666667  0.13333333  0.40000000  1
  Cl  Cl15327  1  0.66666667  0.13333333  0.60000000  1
  Cl  Cl15328  1  0.66666667  0.13333333  0.80000000  1
  Cl  Cl15329  1  0.66666667  0.33333333  0.00000000  1
  Cl  Cl15330  1  0.66666667  0.33333333  0.20000000  1
  Cl  Cl15331  1  0.66666667  0.33333333  0.40000000  1
  Cl  Cl15332  1  0.66666667  0.33333333  0.60000000  1
  Cl  Cl15333  1  0.66666667  0.33333333  0.80000000  1
  Cl  Cl15334  1  0.66666667  0.53333333  0.00000000  1
  Cl  Cl15335  1  0.66666667  0.53333333  0.20000000  1
  Cl  Cl15336  1  0.66666667  0.53333333  0.40000000  1
  Cl  Cl15337  1  0.66666667  0.53333333  0.60000000  1
  Cl  Cl15338  1  0.66666667  0.53333333  0.80000000  1
  Cl  Cl15339  1  0.66666667  0.73333333  0.00000000  1
  Cl  Cl15340  1  0.66666667  0.73333333  0.20000000  1
  Cl  Cl15341  1  0.66666667  0.73333333  0.40000000  1
  Cl  Cl15342  1  0.66666667  0.73333333  0.60000000  1
  Cl  Cl15343  1  0.66666667  0.73333333  0.80000000  1
  Cl  Cl15344  1  0.66666667  0.93333333  0.00000000  1
  Cl  Cl15345  1  0.66666667  0.93333333  0.20000000  1
  Cl  Cl15346  1  0.66666667  0.93333333  0.40000000  1
  Cl  Cl15347  1  0.66666667  0.93333333  0.60000000  1
  Cl  Cl15348  1  0.66666667  0.93333333  0.80000000  1
  Cl  Cl15349  1  0.86666667  0.13333333  0.00000000  1
  Cl  Cl15350  1  0.86666667  0.13333333  0.20000000  1
  Cl  Cl15351  1  0.86666667  0.13333333  0.40000000  1
  Cl  Cl15352  1  0.86666667  0.13333333  0.60000000  1
  Cl  Cl15353  1  0.86666667  0.13333333  0.80000000  1
  Cl  Cl15354  1  0.86666667  0.33333333  0.00000000  1
  Cl  Cl15355  1  0.86666667  0.33333333  0.20000000  1
  Cl  Cl15356  1  0.86666667  0.33333333  0.40000000  1
  Cl  Cl15357  1  0.86666667  0.33333333  0.60000000  1
  Cl  Cl15358  1  0.86666667  0.33333333  0.80000000  1
  Cl  Cl15359  1  0.86666667  0.53333333  0.00000000  1
  Cl  Cl15360  1  0.86666667  0.53333333  0.20000000  1
  Cl  Cl15361  1  0.86666667  0.53333333  0.40000000  1
  Cl  Cl15362  1  0.86666667  0.53333333  0.60000000  1
  Cl  Cl15363  1  0.86666667  0.53333333  0.80000000  1
  Cl  Cl15364  1  0.86666667  0.73333333  0.00000000  1
  Cl  Cl15365  1  0.86666667  0.73333333  0.20000000  1
  Cl  Cl15366  1  0.86666667  0.73333333  0.40000000  1
  Cl  Cl15367  1  0.86666667  0.73333333  0.60000000  1
  Cl  Cl15368  1  0.86666667  0.73333333  0.80000000  1
  Cl  Cl15369  1  0.86666667  0.93333333  0.00000000  1
  Cl  Cl15370  1  0.86666667  0.93333333  0.20000000  1
  Cl  Cl15371  1  0.86666667  0.93333333  0.40000000  1
  Cl  Cl15372  1  0.86666667  0.93333333  0.60000000  1
  Cl  Cl15373  1  0.86666667  0.93333333  0.80000000  1
  Cl  Cl15374  1  0.06666667  0.13333333  0.06666667  1
  Cl  Cl15375  1  0.06666667  0.13333333  0.26666667  1
  Cl  Cl15376  1  0.06666667  0.13333333  0.46666667  1
  Cl  Cl15377  1  0.06666667  0.13333333  0.66666667  1
  Cl  Cl15378  1  0.06666667  0.13333333  0.86666667  1
  Cl  Cl15379  1  0.06666667  0.33333333  0.06666667  1
  Cl  Cl15380  1  0.06666667  0.33333333  0.26666667  1
  Cl  Cl15381  1  0.06666667  0.33333333  0.46666667  1
  Cl  Cl15382  1  0.06666667  0.33333333  0.66666667  1
  Cl  Cl15383  1  0.06666667  0.33333333  0.86666667  1
  Cl  Cl15384  1  0.06666667  0.53333333  0.06666667  1
  Cl  Cl15385  1  0.06666667  0.53333333  0.26666667  1
  Cl  Cl15386  1  0.06666667  0.53333333  0.46666667  1
  Cl  Cl15387  1  0.06666667  0.53333333  0.66666667  1
  Cl  Cl15388  1  0.06666667  0.53333333  0.86666667  1
  Cl  Cl15389  1  0.06666667  0.73333333  0.06666667  1
  Cl  Cl15390  1  0.06666667  0.73333333  0.26666667  1
  Cl  Cl15391  1  0.06666667  0.73333333  0.46666667  1
  Cl  Cl15392  1  0.06666667  0.73333333  0.66666667  1
  Cl  Cl15393  1  0.06666667  0.73333333  0.86666667  1
  Cl  Cl15394  1  0.06666667  0.93333333  0.06666667  1
  Cl  Cl15395  1  0.06666667  0.93333333  0.26666667  1
  Cl  Cl15396  1  0.06666667  0.93333333  0.46666667  1
  Cl  Cl15397  1  0.06666667  0.93333333  0.66666667  1
  Cl  Cl15398  1  0.06666667  0.93333333  0.86666667  1
  Cl  Cl15399  1  0.26666667  0.13333333  0.06666667  1
  Cl  Cl15400  1  0.26666667  0.13333333  0.26666667  1
  Cl  Cl15401  1  0.26666667  0.13333333  0.46666667  1
  Cl  Cl15402  1  0.26666667  0.13333333  0.66666667  1
  Cl  Cl15403  1  0.26666667  0.13333333  0.86666667  1
  Cl  Cl15404  1  0.26666667  0.33333333  0.06666667  1
  Cl  Cl15405  1  0.26666667  0.33333333  0.26666667  1
  Cl  Cl15406  1  0.26666667  0.33333333  0.46666667  1
  Cl  Cl15407  1  0.26666667  0.33333333  0.66666667  1
  Cl  Cl15408  1  0.26666667  0.33333333  0.86666667  1
  Cl  Cl15409  1  0.26666667  0.53333333  0.06666667  1
  Cl  Cl15410  1  0.26666667  0.53333333  0.26666667  1
  Cl  Cl15411  1  0.26666667  0.53333333  0.46666667  1
  Cl  Cl15412  1  0.26666667  0.53333333  0.66666667  1
  Cl  Cl15413  1  0.26666667  0.53333333  0.86666667  1
  Cl  Cl15414  1  0.26666667  0.73333333  0.06666667  1
  Cl  Cl15415  1  0.26666667  0.73333333  0.26666667  1
  Cl  Cl15416  1  0.26666667  0.73333333  0.46666667  1
  Cl  Cl15417  1  0.26666667  0.73333333  0.66666667  1
  Cl  Cl15418  1  0.26666667  0.73333333  0.86666667  1
  Cl  Cl15419  1  0.26666667  0.93333333  0.06666667  1
  Cl  Cl15420  1  0.26666667  0.93333333  0.26666667  1
  Cl  Cl15421  1  0.26666667  0.93333333  0.46666667  1
  Cl  Cl15422  1  0.26666667  0.93333333  0.66666667  1
  Cl  Cl15423  1  0.26666667  0.93333333  0.86666667  1
  Cl  Cl15424  1  0.46666667  0.13333333  0.06666667  1
  Cl  Cl15425  1  0.46666667  0.13333333  0.26666667  1
  Cl  Cl15426  1  0.46666667  0.13333333  0.46666667  1
  Cl  Cl15427  1  0.46666667  0.13333333  0.66666667  1
  Cl  Cl15428  1  0.46666667  0.13333333  0.86666667  1
  Cl  Cl15429  1  0.46666667  0.33333333  0.06666667  1
  Cl  Cl15430  1  0.46666667  0.33333333  0.26666667  1
  Cl  Cl15431  1  0.46666667  0.33333333  0.46666667  1
  Cl  Cl15432  1  0.46666667  0.33333333  0.66666667  1
  Cl  Cl15433  1  0.46666667  0.33333333  0.86666667  1
  Cl  Cl15434  1  0.46666667  0.53333333  0.06666667  1
  Cl  Cl15435  1  0.46666667  0.53333333  0.26666667  1
  Cl  Cl15436  1  0.46666667  0.53333333  0.46666667  1
  Cl  Cl15437  1  0.46666667  0.53333333  0.66666667  1
  Cl  Cl15438  1  0.46666667  0.53333333  0.86666667  1
  Cl  Cl15439  1  0.46666667  0.73333333  0.06666667  1
  Cl  Cl15440  1  0.46666667  0.73333333  0.26666667  1
  Cl  Cl15441  1  0.46666667  0.73333333  0.46666667  1
  Cl  Cl15442  1  0.46666667  0.73333333  0.66666667  1
  Cl  Cl15443  1  0.46666667  0.73333333  0.86666667  1
  Cl  Cl15444  1  0.46666667  0.93333333  0.06666667  1
  Cl  Cl15445  1  0.46666667  0.93333333  0.26666667  1
  Cl  Cl15446  1  0.46666667  0.93333333  0.46666667  1
  Cl  Cl15447  1  0.46666667  0.93333333  0.66666667  1
  Cl  Cl15448  1  0.46666667  0.93333333  0.86666667  1
  Cl  Cl15449  1  0.66666667  0.13333333  0.06666667  1
  Cl  Cl15450  1  0.66666667  0.13333333  0.26666667  1
  Cl  Cl15451  1  0.66666667  0.13333333  0.46666667  1
  Cl  Cl15452  1  0.66666667  0.13333333  0.66666667  1
  Cl  Cl15453  1  0.66666667  0.13333333  0.86666667  1
  Cl  Cl15454  1  0.66666667  0.33333333  0.06666667  1
  Cl  Cl15455  1  0.66666667  0.33333333  0.26666667  1
  Cl  Cl15456  1  0.66666667  0.33333333  0.46666667  1
  Cl  Cl15457  1  0.66666667  0.33333333  0.66666667  1
  Cl  Cl15458  1  0.66666667  0.33333333  0.86666667  1
  Cl  Cl15459  1  0.66666667  0.53333333  0.06666667  1
  Cl  Cl15460  1  0.66666667  0.53333333  0.26666667  1
  Cl  Cl15461  1  0.66666667  0.53333333  0.46666667  1
  Cl  Cl15462  1  0.66666667  0.53333333  0.66666667  1
  Cl  Cl15463  1  0.66666667  0.53333333  0.86666667  1
  Cl  Cl15464  1  0.66666667  0.73333333  0.06666667  1
  Cl  Cl15465  1  0.66666667  0.73333333  0.26666667  1
  Cl  Cl15466  1  0.66666667  0.73333333  0.46666667  1
  Cl  Cl15467  1  0.66666667  0.73333333  0.66666667  1
  Cl  Cl15468  1  0.66666667  0.73333333  0.86666667  1
  Cl  Cl15469  1  0.66666667  0.93333333  0.06666667  1
  Cl  Cl15470  1  0.66666667  0.93333333  0.26666667  1
  Cl  Cl15471  1  0.66666667  0.93333333  0.46666667  1
  Cl  Cl15472  1  0.66666667  0.93333333  0.66666667  1
  Cl  Cl15473  1  0.66666667  0.93333333  0.86666667  1
  Cl  Cl15474  1  0.86666667  0.13333333  0.06666667  1
  Cl  Cl15475  1  0.86666667  0.13333333  0.26666667  1
  Cl  Cl15476  1  0.86666667  0.13333333  0.46666667  1
  Cl  Cl15477  1  0.86666667  0.13333333  0.66666667  1
  Cl  Cl15478  1  0.86666667  0.13333333  0.86666667  1
  Cl  Cl15479  1  0.86666667  0.33333333  0.06666667  1
  Cl  Cl15480  1  0.86666667  0.33333333  0.26666667  1
  Cl  Cl15481  1  0.86666667  0.33333333  0.46666667  1
  Cl  Cl15482  1  0.86666667  0.33333333  0.66666667  1
  Cl  Cl15483  1  0.86666667  0.33333333  0.86666667  1
  Cl  Cl15484  1  0.86666667  0.53333333  0.06666667  1
  Cl  Cl15485  1  0.86666667  0.53333333  0.26666667  1
  Cl  Cl15486  1  0.86666667  0.53333333  0.46666667  1
  Cl  Cl15487  1  0.86666667  0.53333333  0.66666667  1
  Cl  Cl15488  1  0.86666667  0.53333333  0.86666667  1
  Cl  Cl15489  1  0.86666667  0.73333333  0.06666667  1
  Cl  Cl15490  1  0.86666667  0.73333333  0.26666667  1
  Cl  Cl15491  1  0.86666667  0.73333333  0.46666667  1
  Cl  Cl15492  1  0.86666667  0.73333333  0.66666667  1
  Cl  Cl15493  1  0.86666667  0.73333333  0.86666667  1
  Cl  Cl15494  1  0.86666667  0.93333333  0.06666667  1
  Cl  Cl15495  1  0.86666667  0.93333333  0.26666667  1
  Cl  Cl15496  1  0.86666667  0.93333333  0.46666667  1
  Cl  Cl15497  1  0.86666667  0.93333333  0.66666667  1
  Cl  Cl15498  1  0.86666667  0.93333333  0.86666667  1
  Cl  Cl15499  1  0.06666667  0.13333333  0.13333333  1
  Cl  Cl15500  1  0.06666667  0.13333333  0.33333333  1
  Cl  Cl15501  1  0.06666667  0.13333333  0.53333333  1
  Cl  Cl15502  1  0.06666667  0.13333333  0.73333333  1
  Cl  Cl15503  1  0.06666667  0.13333333  0.93333333  1
  Cl  Cl15504  1  0.06666667  0.33333333  0.13333333  1
  Cl  Cl15505  1  0.06666667  0.33333333  0.33333333  1
  Cl  Cl15506  1  0.06666667  0.33333333  0.53333333  1
  Cl  Cl15507  1  0.06666667  0.33333333  0.73333333  1
  Cl  Cl15508  1  0.06666667  0.33333333  0.93333333  1
  Cl  Cl15509  1  0.06666667  0.53333333  0.13333333  1
  Cl  Cl15510  1  0.06666667  0.53333333  0.33333333  1
  Cl  Cl15511  1  0.06666667  0.53333333  0.53333333  1
  Cl  Cl15512  1  0.06666667  0.53333333  0.73333333  1
  Cl  Cl15513  1  0.06666667  0.53333333  0.93333333  1
  Cl  Cl15514  1  0.06666667  0.73333333  0.13333333  1
  Cl  Cl15515  1  0.06666667  0.73333333  0.33333333  1
  Cl  Cl15516  1  0.06666667  0.73333333  0.53333333  1
  Cl  Cl15517  1  0.06666667  0.73333333  0.73333333  1
  Cl  Cl15518  1  0.06666667  0.73333333  0.93333333  1
  Cl  Cl15519  1  0.06666667  0.93333333  0.13333333  1
  Cl  Cl15520  1  0.06666667  0.93333333  0.33333333  1
  Cl  Cl15521  1  0.06666667  0.93333333  0.53333333  1
  Cl  Cl15522  1  0.06666667  0.93333333  0.73333333  1
  Cl  Cl15523  1  0.06666667  0.93333333  0.93333333  1
  Cl  Cl15524  1  0.26666667  0.13333333  0.13333333  1
  Cl  Cl15525  1  0.26666667  0.13333333  0.33333333  1
  Cl  Cl15526  1  0.26666667  0.13333333  0.53333333  1
  Cl  Cl15527  1  0.26666667  0.13333333  0.73333333  1
  Cl  Cl15528  1  0.26666667  0.13333333  0.93333333  1
  Cl  Cl15529  1  0.26666667  0.33333333  0.13333333  1
  Cl  Cl15530  1  0.26666667  0.33333333  0.33333333  1
  Cl  Cl15531  1  0.26666667  0.33333333  0.53333333  1
  Cl  Cl15532  1  0.26666667  0.33333333  0.73333333  1
  Cl  Cl15533  1  0.26666667  0.33333333  0.93333333  1
  Cl  Cl15534  1  0.26666667  0.53333333  0.13333333  1
  Cl  Cl15535  1  0.26666667  0.53333333  0.33333333  1
  Cl  Cl15536  1  0.26666667  0.53333333  0.53333333  1
  Cl  Cl15537  1  0.26666667  0.53333333  0.73333333  1
  Cl  Cl15538  1  0.26666667  0.53333333  0.93333333  1
  Cl  Cl15539  1  0.26666667  0.73333333  0.13333333  1
  Cl  Cl15540  1  0.26666667  0.73333333  0.33333333  1
  Cl  Cl15541  1  0.26666667  0.73333333  0.53333333  1
  Cl  Cl15542  1  0.26666667  0.73333333  0.73333333  1
  Cl  Cl15543  1  0.26666667  0.73333333  0.93333333  1
  Cl  Cl15544  1  0.26666667  0.93333333  0.13333333  1
  Cl  Cl15545  1  0.26666667  0.93333333  0.33333333  1
  Cl  Cl15546  1  0.26666667  0.93333333  0.53333333  1
  Cl  Cl15547  1  0.26666667  0.93333333  0.73333333  1
  Cl  Cl15548  1  0.26666667  0.93333333  0.93333333  1
  Cl  Cl15549  1  0.46666667  0.13333333  0.13333333  1
  Cl  Cl15550  1  0.46666667  0.13333333  0.33333333  1
  Cl  Cl15551  1  0.46666667  0.13333333  0.53333333  1
  Cl  Cl15552  1  0.46666667  0.13333333  0.73333333  1
  Cl  Cl15553  1  0.46666667  0.13333333  0.93333333  1
  Cl  Cl15554  1  0.46666667  0.33333333  0.13333333  1
  Cl  Cl15555  1  0.46666667  0.33333333  0.33333333  1
  Cl  Cl15556  1  0.46666667  0.33333333  0.53333333  1
  Cl  Cl15557  1  0.46666667  0.33333333  0.73333333  1
  Cl  Cl15558  1  0.46666667  0.33333333  0.93333333  1
  Cl  Cl15559  1  0.46666667  0.53333333  0.13333333  1
  Cl  Cl15560  1  0.46666667  0.53333333  0.33333333  1
  Cl  Cl15561  1  0.46666667  0.53333333  0.53333333  1
  Cl  Cl15562  1  0.46666667  0.53333333  0.73333333  1
  Cl  Cl15563  1  0.46666667  0.53333333  0.93333333  1
  Cl  Cl15564  1  0.46666667  0.73333333  0.13333333  1
  Cl  Cl15565  1  0.46666667  0.73333333  0.33333333  1
  Cl  Cl15566  1  0.46666667  0.73333333  0.53333333  1
  Cl  Cl15567  1  0.46666667  0.73333333  0.73333333  1
  Cl  Cl15568  1  0.46666667  0.73333333  0.93333333  1
  Cl  Cl15569  1  0.46666667  0.93333333  0.13333333  1
  Cl  Cl15570  1  0.46666667  0.93333333  0.33333333  1
  Cl  Cl15571  1  0.46666667  0.93333333  0.53333333  1
  Cl  Cl15572  1  0.46666667  0.93333333  0.73333333  1
  Cl  Cl15573  1  0.46666667  0.93333333  0.93333333  1
  Cl  Cl15574  1  0.66666667  0.13333333  0.13333333  1
  Cl  Cl15575  1  0.66666667  0.13333333  0.33333333  1
  Cl  Cl15576  1  0.66666667  0.13333333  0.53333333  1
  Cl  Cl15577  1  0.66666667  0.13333333  0.73333333  1
  Cl  Cl15578  1  0.66666667  0.13333333  0.93333333  1
  Cl  Cl15579  1  0.66666667  0.33333333  0.13333333  1
  Cl  Cl15580  1  0.66666667  0.33333333  0.33333333  1
  Cl  Cl15581  1  0.66666667  0.33333333  0.53333333  1
  Cl  Cl15582  1  0.66666667  0.33333333  0.73333333  1
  Cl  Cl15583  1  0.66666667  0.33333333  0.93333333  1
  Cl  Cl15584  1  0.66666667  0.53333333  0.13333333  1
  Cl  Cl15585  1  0.66666667  0.53333333  0.33333333  1
  Cl  Cl15586  1  0.66666667  0.53333333  0.53333333  1
  Cl  Cl15587  1  0.66666667  0.53333333  0.73333333  1
  Cl  Cl15588  1  0.66666667  0.53333333  0.93333333  1
  Cl  Cl15589  1  0.66666667  0.73333333  0.13333333  1
  Cl  Cl15590  1  0.66666667  0.73333333  0.33333333  1
  Cl  Cl15591  1  0.66666667  0.73333333  0.53333333  1
  Cl  Cl15592  1  0.66666667  0.73333333  0.73333333  1
  Cl  Cl15593  1  0.66666667  0.73333333  0.93333333  1
  Cl  Cl15594  1  0.66666667  0.93333333  0.13333333  1
  Cl  Cl15595  1  0.66666667  0.93333333  0.33333333  1
  Cl  Cl15596  1  0.66666667  0.93333333  0.53333333  1
  Cl  Cl15597  1  0.66666667  0.93333333  0.73333333  1
  Cl  Cl15598  1  0.66666667  0.93333333  0.93333333  1
  Cl  Cl15599  1  0.86666667  0.13333333  0.13333333  1
  Cl  Cl15600  1  0.86666667  0.13333333  0.33333333  1
  Cl  Cl15601  1  0.86666667  0.13333333  0.53333333  1
  Cl  Cl15602  1  0.86666667  0.13333333  0.73333333  1
  Cl  Cl15603  1  0.86666667  0.13333333  0.93333333  1
  Cl  Cl15604  1  0.86666667  0.33333333  0.13333333  1
  Cl  Cl15605  1  0.86666667  0.33333333  0.33333333  1
  Cl  Cl15606  1  0.86666667  0.33333333  0.53333333  1
  Cl  Cl15607  1  0.86666667  0.33333333  0.73333333  1
  Cl  Cl15608  1  0.86666667  0.33333333  0.93333333  1
  Cl  Cl15609  1  0.86666667  0.53333333  0.13333333  1
  Cl  Cl15610  1  0.86666667  0.53333333  0.33333333  1
  Cl  Cl15611  1  0.86666667  0.53333333  0.53333333  1
  Cl  Cl15612  1  0.86666667  0.53333333  0.73333333  1
  Cl  Cl15613  1  0.86666667  0.53333333  0.93333333  1
  Cl  Cl15614  1  0.86666667  0.73333333  0.13333333  1
  Cl  Cl15615  1  0.86666667  0.73333333  0.33333333  1
  Cl  Cl15616  1  0.86666667  0.73333333  0.53333333  1
  Cl  Cl15617  1  0.86666667  0.73333333  0.73333333  1
  Cl  Cl15618  1  0.86666667  0.73333333  0.93333333  1
  Cl  Cl15619  1  0.86666667  0.93333333  0.13333333  1
  Cl  Cl15620  1  0.86666667  0.93333333  0.33333333  1
  Cl  Cl15621  1  0.86666667  0.93333333  0.53333333  1
  Cl  Cl15622  1  0.86666667  0.93333333  0.73333333  1
  Cl  Cl15623  1  0.86666667  0.93333333  0.93333333  1
  Cl  Cl15624  1  0.13333333  0.00000000  0.00000000  1
  Cl  Cl15625  1  0.13333333  0.00000000  0.20000000  1
  Cl  Cl15626  1  0.13333333  0.00000000  0.40000000  1
  Cl  Cl15627  1  0.13333333  0.00000000  0.60000000  1
  Cl  Cl15628  1  0.13333333  0.00000000  0.80000000  1
  Cl  Cl15629  1  0.13333333  0.20000000  0.00000000  1
  Cl  Cl15630  1  0.13333333  0.20000000  0.20000000  1
  Cl  Cl15631  1  0.13333333  0.20000000  0.40000000  1
  Cl  Cl15632  1  0.13333333  0.20000000  0.60000000  1
  Cl  Cl15633  1  0.13333333  0.20000000  0.80000000  1
  Cl  Cl15634  1  0.13333333  0.40000000  0.00000000  1
  Cl  Cl15635  1  0.13333333  0.40000000  0.20000000  1
  Cl  Cl15636  1  0.13333333  0.40000000  0.40000000  1
  Cl  Cl15637  1  0.13333333  0.40000000  0.60000000  1
  Cl  Cl15638  1  0.13333333  0.40000000  0.80000000  1
  Cl  Cl15639  1  0.13333333  0.60000000  0.00000000  1
  Cl  Cl15640  1  0.13333333  0.60000000  0.20000000  1
  Cl  Cl15641  1  0.13333333  0.60000000  0.40000000  1
  Cl  Cl15642  1  0.13333333  0.60000000  0.60000000  1
  Cl  Cl15643  1  0.13333333  0.60000000  0.80000000  1
  Cl  Cl15644  1  0.13333333  0.80000000  0.00000000  1
  Cl  Cl15645  1  0.13333333  0.80000000  0.20000000  1
  Cl  Cl15646  1  0.13333333  0.80000000  0.40000000  1
  Cl  Cl15647  1  0.13333333  0.80000000  0.60000000  1
  Cl  Cl15648  1  0.13333333  0.80000000  0.80000000  1
  Cl  Cl15649  1  0.33333333  0.00000000  0.00000000  1
  Cl  Cl15650  1  0.33333333  0.00000000  0.20000000  1
  Cl  Cl15651  1  0.33333333  0.00000000  0.40000000  1
  Cl  Cl15652  1  0.33333333  0.00000000  0.60000000  1
  Cl  Cl15653  1  0.33333333  0.00000000  0.80000000  1
  Cl  Cl15654  1  0.33333333  0.20000000  0.00000000  1
  Cl  Cl15655  1  0.33333333  0.20000000  0.20000000  1
  Cl  Cl15656  1  0.33333333  0.20000000  0.40000000  1
  Cl  Cl15657  1  0.33333333  0.20000000  0.60000000  1
  Cl  Cl15658  1  0.33333333  0.20000000  0.80000000  1
  Cl  Cl15659  1  0.33333333  0.40000000  0.00000000  1
  Cl  Cl15660  1  0.33333333  0.40000000  0.20000000  1
  Cl  Cl15661  1  0.33333333  0.40000000  0.40000000  1
  Cl  Cl15662  1  0.33333333  0.40000000  0.60000000  1
  Cl  Cl15663  1  0.33333333  0.40000000  0.80000000  1
  Cl  Cl15664  1  0.33333333  0.60000000  0.00000000  1
  Cl  Cl15665  1  0.33333333  0.60000000  0.20000000  1
  Cl  Cl15666  1  0.33333333  0.60000000  0.40000000  1
  Cl  Cl15667  1  0.33333333  0.60000000  0.60000000  1
  Cl  Cl15668  1  0.33333333  0.60000000  0.80000000  1
  Cl  Cl15669  1  0.33333333  0.80000000  0.00000000  1
  Cl  Cl15670  1  0.33333333  0.80000000  0.20000000  1
  Cl  Cl15671  1  0.33333333  0.80000000  0.40000000  1
  Cl  Cl15672  1  0.33333333  0.80000000  0.60000000  1
  Cl  Cl15673  1  0.33333333  0.80000000  0.80000000  1
  Cl  Cl15674  1  0.53333333  0.00000000  0.00000000  1
  Cl  Cl15675  1  0.53333333  0.00000000  0.20000000  1
  Cl  Cl15676  1  0.53333333  0.00000000  0.40000000  1
  Cl  Cl15677  1  0.53333333  0.00000000  0.60000000  1
  Cl  Cl15678  1  0.53333333  0.00000000  0.80000000  1
  Cl  Cl15679  1  0.53333333  0.20000000  0.00000000  1
  Cl  Cl15680  1  0.53333333  0.20000000  0.20000000  1
  Cl  Cl15681  1  0.53333333  0.20000000  0.40000000  1
  Cl  Cl15682  1  0.53333333  0.20000000  0.60000000  1
  Cl  Cl15683  1  0.53333333  0.20000000  0.80000000  1
  Cl  Cl15684  1  0.53333333  0.40000000  0.00000000  1
  Cl  Cl15685  1  0.53333333  0.40000000  0.20000000  1
  Cl  Cl15686  1  0.53333333  0.40000000  0.40000000  1
  Cl  Cl15687  1  0.53333333  0.40000000  0.60000000  1
  Cl  Cl15688  1  0.53333333  0.40000000  0.80000000  1
  Cl  Cl15689  1  0.53333333  0.60000000  0.00000000  1
  Cl  Cl15690  1  0.53333333  0.60000000  0.20000000  1
  Cl  Cl15691  1  0.53333333  0.60000000  0.40000000  1
  Cl  Cl15692  1  0.53333333  0.60000000  0.60000000  1
  Cl  Cl15693  1  0.53333333  0.60000000  0.80000000  1
  Cl  Cl15694  1  0.53333333  0.80000000  0.00000000  1
  Cl  Cl15695  1  0.53333333  0.80000000  0.20000000  1
  Cl  Cl15696  1  0.53333333  0.80000000  0.40000000  1
  Cl  Cl15697  1  0.53333333  0.80000000  0.60000000  1
  Cl  Cl15698  1  0.53333333  0.80000000  0.80000000  1
  Cl  Cl15699  1  0.73333333  0.00000000  0.00000000  1
  Cl  Cl15700  1  0.73333333  0.00000000  0.20000000  1
  Cl  Cl15701  1  0.73333333  0.00000000  0.40000000  1
  Cl  Cl15702  1  0.73333333  0.00000000  0.60000000  1
  Cl  Cl15703  1  0.73333333  0.00000000  0.80000000  1
  Cl  Cl15704  1  0.73333333  0.20000000  0.00000000  1
  Cl  Cl15705  1  0.73333333  0.20000000  0.20000000  1
  Cl  Cl15706  1  0.73333333  0.20000000  0.40000000  1
  Cl  Cl15707  1  0.73333333  0.20000000  0.60000000  1
  Cl  Cl15708  1  0.73333333  0.20000000  0.80000000  1
  Cl  Cl15709  1  0.73333333  0.40000000  0.00000000  1
  Cl  Cl15710  1  0.73333333  0.40000000  0.20000000  1
  Cl  Cl15711  1  0.73333333  0.40000000  0.40000000  1
  Cl  Cl15712  1  0.73333333  0.40000000  0.60000000  1
  Cl  Cl15713  1  0.73333333  0.40000000  0.80000000  1
  Cl  Cl15714  1  0.73333333  0.60000000  0.00000000  1
  Cl  Cl15715  1  0.73333333  0.60000000  0.20000000  1
  Cl  Cl15716  1  0.73333333  0.60000000  0.40000000  1
  Cl  Cl15717  1  0.73333333  0.60000000  0.60000000  1
  Cl  Cl15718  1  0.73333333  0.60000000  0.80000000  1
  Cl  Cl15719  1  0.73333333  0.80000000  0.00000000  1
  Cl  Cl15720  1  0.73333333  0.80000000  0.20000000  1
  Cl  Cl15721  1  0.73333333  0.80000000  0.40000000  1
  Cl  Cl15722  1  0.73333333  0.80000000  0.60000000  1
  Cl  Cl15723  1  0.73333333  0.80000000  0.80000000  1
  Cl  Cl15724  1  0.93333333  0.00000000  0.00000000  1
  Cl  Cl15725  1  0.93333333  0.00000000  0.20000000  1
  Cl  Cl15726  1  0.93333333  0.00000000  0.40000000  1
  Cl  Cl15727  1  0.93333333  0.00000000  0.60000000  1
  Cl  Cl15728  1  0.93333333  0.00000000  0.80000000  1
  Cl  Cl15729  1  0.93333333  0.20000000  0.00000000  1
  Cl  Cl15730  1  0.93333333  0.20000000  0.20000000  1
  Cl  Cl15731  1  0.93333333  0.20000000  0.40000000  1
  Cl  Cl15732  1  0.93333333  0.20000000  0.60000000  1
  Cl  Cl15733  1  0.93333333  0.20000000  0.80000000  1
  Cl  Cl15734  1  0.93333333  0.40000000  0.00000000  1
  Cl  Cl15735  1  0.93333333  0.40000000  0.20000000  1
  Cl  Cl15736  1  0.93333333  0.40000000  0.40000000  1
  Cl  Cl15737  1  0.93333333  0.40000000  0.60000000  1
  Cl  Cl15738  1  0.93333333  0.40000000  0.80000000  1
  Cl  Cl15739  1  0.93333333  0.60000000  0.00000000  1
  Cl  Cl15740  1  0.93333333  0.60000000  0.20000000  1
  Cl  Cl15741  1  0.93333333  0.60000000  0.40000000  1
  Cl  Cl15742  1  0.93333333  0.60000000  0.60000000  1
  Cl  Cl15743  1  0.93333333  0.60000000  0.80000000  1
  Cl  Cl15744  1  0.93333333  0.80000000  0.00000000  1
  Cl  Cl15745  1  0.93333333  0.80000000  0.20000000  1
  Cl  Cl15746  1  0.93333333  0.80000000  0.40000000  1
  Cl  Cl15747  1  0.93333333  0.80000000  0.60000000  1
  Cl  Cl15748  1  0.93333333  0.80000000  0.80000000  1
  Cl  Cl15749  1  0.13333333  0.00000000  0.06666667  1
  Cl  Cl15750  1  0.13333333  0.00000000  0.26666667  1
  Cl  Cl15751  1  0.13333333  0.00000000  0.46666667  1
  Cl  Cl15752  1  0.13333333  0.00000000  0.66666667  1
  Cl  Cl15753  1  0.13333333  0.00000000  0.86666667  1
  Cl  Cl15754  1  0.13333333  0.20000000  0.06666667  1
  Cl  Cl15755  1  0.13333333  0.20000000  0.26666667  1
  Cl  Cl15756  1  0.13333333  0.20000000  0.46666667  1
  Cl  Cl15757  1  0.13333333  0.20000000  0.66666667  1
  Cl  Cl15758  1  0.13333333  0.20000000  0.86666667  1
  Cl  Cl15759  1  0.13333333  0.40000000  0.06666667  1
  Cl  Cl15760  1  0.13333333  0.40000000  0.26666667  1
  Cl  Cl15761  1  0.13333333  0.40000000  0.46666667  1
  Cl  Cl15762  1  0.13333333  0.40000000  0.66666667  1
  Cl  Cl15763  1  0.13333333  0.40000000  0.86666667  1
  Cl  Cl15764  1  0.13333333  0.60000000  0.06666667  1
  Cl  Cl15765  1  0.13333333  0.60000000  0.26666667  1
  Cl  Cl15766  1  0.13333333  0.60000000  0.46666667  1
  Cl  Cl15767  1  0.13333333  0.60000000  0.66666667  1
  Cl  Cl15768  1  0.13333333  0.60000000  0.86666667  1
  Cl  Cl15769  1  0.13333333  0.80000000  0.06666667  1
  Cl  Cl15770  1  0.13333333  0.80000000  0.26666667  1
  Cl  Cl15771  1  0.13333333  0.80000000  0.46666667  1
  Cl  Cl15772  1  0.13333333  0.80000000  0.66666667  1
  Cl  Cl15773  1  0.13333333  0.80000000  0.86666667  1
  Cl  Cl15774  1  0.33333333  0.00000000  0.06666667  1
  Cl  Cl15775  1  0.33333333  0.00000000  0.26666667  1
  Cl  Cl15776  1  0.33333333  0.00000000  0.46666667  1
  Cl  Cl15777  1  0.33333333  0.00000000  0.66666667  1
  Cl  Cl15778  1  0.33333333  0.00000000  0.86666667  1
  Cl  Cl15779  1  0.33333333  0.20000000  0.06666667  1
  Cl  Cl15780  1  0.33333333  0.20000000  0.26666667  1
  Cl  Cl15781  1  0.33333333  0.20000000  0.46666667  1
  Cl  Cl15782  1  0.33333333  0.20000000  0.66666667  1
  Cl  Cl15783  1  0.33333333  0.20000000  0.86666667  1
  Cl  Cl15784  1  0.33333333  0.40000000  0.06666667  1
  Cl  Cl15785  1  0.33333333  0.40000000  0.26666667  1
  Cl  Cl15786  1  0.33333333  0.40000000  0.46666667  1
  Cl  Cl15787  1  0.33333333  0.40000000  0.66666667  1
  Cl  Cl15788  1  0.33333333  0.40000000  0.86666667  1
  Cl  Cl15789  1  0.33333333  0.60000000  0.06666667  1
  Cl  Cl15790  1  0.33333333  0.60000000  0.26666667  1
  Cl  Cl15791  1  0.33333333  0.60000000  0.46666667  1
  Cl  Cl15792  1  0.33333333  0.60000000  0.66666667  1
  Cl  Cl15793  1  0.33333333  0.60000000  0.86666667  1
  Cl  Cl15794  1  0.33333333  0.80000000  0.06666667  1
  Cl  Cl15795  1  0.33333333  0.80000000  0.26666667  1
  Cl  Cl15796  1  0.33333333  0.80000000  0.46666667  1
  Cl  Cl15797  1  0.33333333  0.80000000  0.66666667  1
  Cl  Cl15798  1  0.33333333  0.80000000  0.86666667  1
  Cl  Cl15799  1  0.53333333  0.00000000  0.06666667  1
  Cl  Cl15800  1  0.53333333  0.00000000  0.26666667  1
  Cl  Cl15801  1  0.53333333  0.00000000  0.46666667  1
  Cl  Cl15802  1  0.53333333  0.00000000  0.66666667  1
  Cl  Cl15803  1  0.53333333  0.00000000  0.86666667  1
  Cl  Cl15804  1  0.53333333  0.20000000  0.06666667  1
  Cl  Cl15805  1  0.53333333  0.20000000  0.26666667  1
  Cl  Cl15806  1  0.53333333  0.20000000  0.46666667  1
  Cl  Cl15807  1  0.53333333  0.20000000  0.66666667  1
  Cl  Cl15808  1  0.53333333  0.20000000  0.86666667  1
  Cl  Cl15809  1  0.53333333  0.40000000  0.06666667  1
  Cl  Cl15810  1  0.53333333  0.40000000  0.26666667  1
  Cl  Cl15811  1  0.53333333  0.40000000  0.46666667  1
  Cl  Cl15812  1  0.53333333  0.40000000  0.66666667  1
  Cl  Cl15813  1  0.53333333  0.40000000  0.86666667  1
  Cl  Cl15814  1  0.53333333  0.60000000  0.06666667  1
  Cl  Cl15815  1  0.53333333  0.60000000  0.26666667  1
  Cl  Cl15816  1  0.53333333  0.60000000  0.46666667  1
  Cl  Cl15817  1  0.53333333  0.60000000  0.66666667  1
  Cl  Cl15818  1  0.53333333  0.60000000  0.86666667  1
  Cl  Cl15819  1  0.53333333  0.80000000  0.06666667  1
  Cl  Cl15820  1  0.53333333  0.80000000  0.26666667  1
  Cl  Cl15821  1  0.53333333  0.80000000  0.46666667  1
  Cl  Cl15822  1  0.53333333  0.80000000  0.66666667  1
  Cl  Cl15823  1  0.53333333  0.80000000  0.86666667  1
  Cl  Cl15824  1  0.73333333  0.00000000  0.06666667  1
  Cl  Cl15825  1  0.73333333  0.00000000  0.26666667  1
  Cl  Cl15826  1  0.73333333  0.00000000  0.46666667  1
  Cl  Cl15827  1  0.73333333  0.00000000  0.66666667  1
  Cl  Cl15828  1  0.73333333  0.00000000  0.86666667  1
  Cl  Cl15829  1  0.73333333  0.20000000  0.06666667  1
  Cl  Cl15830  1  0.73333333  0.20000000  0.26666667  1
  Cl  Cl15831  1  0.73333333  0.20000000  0.46666667  1
  Cl  Cl15832  1  0.73333333  0.20000000  0.66666667  1
  Cl  Cl15833  1  0.73333333  0.20000000  0.86666667  1
  Cl  Cl15834  1  0.73333333  0.40000000  0.06666667  1
  Cl  Cl15835  1  0.73333333  0.40000000  0.26666667  1
  Cl  Cl15836  1  0.73333333  0.40000000  0.46666667  1
  Cl  Cl15837  1  0.73333333  0.40000000  0.66666667  1
  Cl  Cl15838  1  0.73333333  0.40000000  0.86666667  1
  Cl  Cl15839  1  0.73333333  0.60000000  0.06666667  1
  Cl  Cl15840  1  0.73333333  0.60000000  0.26666667  1
  Cl  Cl15841  1  0.73333333  0.60000000  0.46666667  1
  Cl  Cl15842  1  0.73333333  0.60000000  0.66666667  1
  Cl  Cl15843  1  0.73333333  0.60000000  0.86666667  1
  Cl  Cl15844  1  0.73333333  0.80000000  0.06666667  1
  Cl  Cl15845  1  0.73333333  0.80000000  0.26666667  1
  Cl  Cl15846  1  0.73333333  0.80000000  0.46666667  1
  Cl  Cl15847  1  0.73333333  0.80000000  0.66666667  1
  Cl  Cl15848  1  0.73333333  0.80000000  0.86666667  1
  Cl  Cl15849  1  0.93333333  0.00000000  0.06666667  1
  Cl  Cl15850  1  0.93333333  0.00000000  0.26666667  1
  Cl  Cl15851  1  0.93333333  0.00000000  0.46666667  1
  Cl  Cl15852  1  0.93333333  0.00000000  0.66666667  1
  Cl  Cl15853  1  0.93333333  0.00000000  0.86666667  1
  Cl  Cl15854  1  0.93333333  0.20000000  0.06666667  1
  Cl  Cl15855  1  0.93333333  0.20000000  0.26666667  1
  Cl  Cl15856  1  0.93333333  0.20000000  0.46666667  1
  Cl  Cl15857  1  0.93333333  0.20000000  0.66666667  1
  Cl  Cl15858  1  0.93333333  0.20000000  0.86666667  1
  Cl  Cl15859  1  0.93333333  0.40000000  0.06666667  1
  Cl  Cl15860  1  0.93333333  0.40000000  0.26666667  1
  Cl  Cl15861  1  0.93333333  0.40000000  0.46666667  1
  Cl  Cl15862  1  0.93333333  0.40000000  0.66666667  1
  Cl  Cl15863  1  0.93333333  0.40000000  0.86666667  1
  Cl  Cl15864  1  0.93333333  0.60000000  0.06666667  1
  Cl  Cl15865  1  0.93333333  0.60000000  0.26666667  1
  Cl  Cl15866  1  0.93333333  0.60000000  0.46666667  1
  Cl  Cl15867  1  0.93333333  0.60000000  0.66666667  1
  Cl  Cl15868  1  0.93333333  0.60000000  0.86666667  1
  Cl  Cl15869  1  0.93333333  0.80000000  0.06666667  1
  Cl  Cl15870  1  0.93333333  0.80000000  0.26666667  1
  Cl  Cl15871  1  0.93333333  0.80000000  0.46666667  1
  Cl  Cl15872  1  0.93333333  0.80000000  0.66666667  1
  Cl  Cl15873  1  0.93333333  0.80000000  0.86666667  1
  Cl  Cl15874  1  0.13333333  0.00000000  0.13333333  1
  Cl  Cl15875  1  0.13333333  0.00000000  0.33333333  1
  Cl  Cl15876  1  0.13333333  0.00000000  0.53333333  1
  Cl  Cl15877  1  0.13333333  0.00000000  0.73333333  1
  Cl  Cl15878  1  0.13333333  0.00000000  0.93333333  1
  Cl  Cl15879  1  0.13333333  0.20000000  0.13333333  1
  Cl  Cl15880  1  0.13333333  0.20000000  0.33333333  1
  Cl  Cl15881  1  0.13333333  0.20000000  0.53333333  1
  Cl  Cl15882  1  0.13333333  0.20000000  0.73333333  1
  Cl  Cl15883  1  0.13333333  0.20000000  0.93333333  1
  Cl  Cl15884  1  0.13333333  0.40000000  0.13333333  1
  Cl  Cl15885  1  0.13333333  0.40000000  0.33333333  1
  Cl  Cl15886  1  0.13333333  0.40000000  0.53333333  1
  Cl  Cl15887  1  0.13333333  0.40000000  0.73333333  1
  Cl  Cl15888  1  0.13333333  0.40000000  0.93333333  1
  Cl  Cl15889  1  0.13333333  0.60000000  0.13333333  1
  Cl  Cl15890  1  0.13333333  0.60000000  0.33333333  1
  Cl  Cl15891  1  0.13333333  0.60000000  0.53333333  1
  Cl  Cl15892  1  0.13333333  0.60000000  0.73333333  1
  Cl  Cl15893  1  0.13333333  0.60000000  0.93333333  1
  Cl  Cl15894  1  0.13333333  0.80000000  0.13333333  1
  Cl  Cl15895  1  0.13333333  0.80000000  0.33333333  1
  Cl  Cl15896  1  0.13333333  0.80000000  0.53333333  1
  Cl  Cl15897  1  0.13333333  0.80000000  0.73333333  1
  Cl  Cl15898  1  0.13333333  0.80000000  0.93333333  1
  Cl  Cl15899  1  0.33333333  0.00000000  0.13333333  1
  Cl  Cl15900  1  0.33333333  0.00000000  0.33333333  1
  Cl  Cl15901  1  0.33333333  0.00000000  0.53333333  1
  Cl  Cl15902  1  0.33333333  0.00000000  0.73333333  1
  Cl  Cl15903  1  0.33333333  0.00000000  0.93333333  1
  Cl  Cl15904  1  0.33333333  0.20000000  0.13333333  1
  Cl  Cl15905  1  0.33333333  0.20000000  0.33333333  1
  Cl  Cl15906  1  0.33333333  0.20000000  0.53333333  1
  Cl  Cl15907  1  0.33333333  0.20000000  0.73333333  1
  Cl  Cl15908  1  0.33333333  0.20000000  0.93333333  1
  Cl  Cl15909  1  0.33333333  0.40000000  0.13333333  1
  Cl  Cl15910  1  0.33333333  0.40000000  0.33333333  1
  Cl  Cl15911  1  0.33333333  0.40000000  0.53333333  1
  Cl  Cl15912  1  0.33333333  0.40000000  0.73333333  1
  Cl  Cl15913  1  0.33333333  0.40000000  0.93333333  1
  Cl  Cl15914  1  0.33333333  0.60000000  0.13333333  1
  Cl  Cl15915  1  0.33333333  0.60000000  0.33333333  1
  Cl  Cl15916  1  0.33333333  0.60000000  0.53333333  1
  Cl  Cl15917  1  0.33333333  0.60000000  0.73333333  1
  Cl  Cl15918  1  0.33333333  0.60000000  0.93333333  1
  Cl  Cl15919  1  0.33333333  0.80000000  0.13333333  1
  Cl  Cl15920  1  0.33333333  0.80000000  0.33333333  1
  Cl  Cl15921  1  0.33333333  0.80000000  0.53333333  1
  Cl  Cl15922  1  0.33333333  0.80000000  0.73333333  1
  Cl  Cl15923  1  0.33333333  0.80000000  0.93333333  1
  Cl  Cl15924  1  0.53333333  0.00000000  0.13333333  1
  Cl  Cl15925  1  0.53333333  0.00000000  0.33333333  1
  Cl  Cl15926  1  0.53333333  0.00000000  0.53333333  1
  Cl  Cl15927  1  0.53333333  0.00000000  0.73333333  1
  Cl  Cl15928  1  0.53333333  0.00000000  0.93333333  1
  Cl  Cl15929  1  0.53333333  0.20000000  0.13333333  1
  Cl  Cl15930  1  0.53333333  0.20000000  0.33333333  1
  Cl  Cl15931  1  0.53333333  0.20000000  0.53333333  1
  Cl  Cl15932  1  0.53333333  0.20000000  0.73333333  1
  Cl  Cl15933  1  0.53333333  0.20000000  0.93333333  1
  Cl  Cl15934  1  0.53333333  0.40000000  0.13333333  1
  Cl  Cl15935  1  0.53333333  0.40000000  0.33333333  1
  Cl  Cl15936  1  0.53333333  0.40000000  0.53333333  1
  Cl  Cl15937  1  0.53333333  0.40000000  0.73333333  1
  Cl  Cl15938  1  0.53333333  0.40000000  0.93333333  1
  Cl  Cl15939  1  0.53333333  0.60000000  0.13333333  1
  Cl  Cl15940  1  0.53333333  0.60000000  0.33333333  1
  Cl  Cl15941  1  0.53333333  0.60000000  0.53333333  1
  Cl  Cl15942  1  0.53333333  0.60000000  0.73333333  1
  Cl  Cl15943  1  0.53333333  0.60000000  0.93333333  1
  Cl  Cl15944  1  0.53333333  0.80000000  0.13333333  1
  Cl  Cl15945  1  0.53333333  0.80000000  0.33333333  1
  Cl  Cl15946  1  0.53333333  0.80000000  0.53333333  1
  Cl  Cl15947  1  0.53333333  0.80000000  0.73333333  1
  Cl  Cl15948  1  0.53333333  0.80000000  0.93333333  1
  Cl  Cl15949  1  0.73333333  0.00000000  0.13333333  1
  Cl  Cl15950  1  0.73333333  0.00000000  0.33333333  1
  Cl  Cl15951  1  0.73333333  0.00000000  0.53333333  1
  Cl  Cl15952  1  0.73333333  0.00000000  0.73333333  1
  Cl  Cl15953  1  0.73333333  0.00000000  0.93333333  1
  Cl  Cl15954  1  0.73333333  0.20000000  0.13333333  1
  Cl  Cl15955  1  0.73333333  0.20000000  0.33333333  1
  Cl  Cl15956  1  0.73333333  0.20000000  0.53333333  1
  Cl  Cl15957  1  0.73333333  0.20000000  0.73333333  1
  Cl  Cl15958  1  0.73333333  0.20000000  0.93333333  1
  Cl  Cl15959  1  0.73333333  0.40000000  0.13333333  1
  Cl  Cl15960  1  0.73333333  0.40000000  0.33333333  1
  Cl  Cl15961  1  0.73333333  0.40000000  0.53333333  1
  Cl  Cl15962  1  0.73333333  0.40000000  0.73333333  1
  Cl  Cl15963  1  0.73333333  0.40000000  0.93333333  1
  Cl  Cl15964  1  0.73333333  0.60000000  0.13333333  1
  Cl  Cl15965  1  0.73333333  0.60000000  0.33333333  1
  Cl  Cl15966  1  0.73333333  0.60000000  0.53333333  1
  Cl  Cl15967  1  0.73333333  0.60000000  0.73333333  1
  Cl  Cl15968  1  0.73333333  0.60000000  0.93333333  1
  Cl  Cl15969  1  0.73333333  0.80000000  0.13333333  1
  Cl  Cl15970  1  0.73333333  0.80000000  0.33333333  1
  Cl  Cl15971  1  0.73333333  0.80000000  0.53333333  1
  Cl  Cl15972  1  0.73333333  0.80000000  0.73333333  1
  Cl  Cl15973  1  0.73333333  0.80000000  0.93333333  1
  Cl  Cl15974  1  0.93333333  0.00000000  0.13333333  1
  Cl  Cl15975  1  0.93333333  0.00000000  0.33333333  1
  Cl  Cl15976  1  0.93333333  0.00000000  0.53333333  1
  Cl  Cl15977  1  0.93333333  0.00000000  0.73333333  1
  Cl  Cl15978  1  0.93333333  0.00000000  0.93333333  1
  Cl  Cl15979  1  0.93333333  0.20000000  0.13333333  1
  Cl  Cl15980  1  0.93333333  0.20000000  0.33333333  1
  Cl  Cl15981  1  0.93333333  0.20000000  0.53333333  1
  Cl  Cl15982  1  0.93333333  0.20000000  0.73333333  1
  Cl  Cl15983  1  0.93333333  0.20000000  0.93333333  1
  Cl  Cl15984  1  0.93333333  0.40000000  0.13333333  1
  Cl  Cl15985  1  0.93333333  0.40000000  0.33333333  1
  Cl  Cl15986  1  0.93333333  0.40000000  0.53333333  1
  Cl  Cl15987  1  0.93333333  0.40000000  0.73333333  1
  Cl  Cl15988  1  0.93333333  0.40000000  0.93333333  1
  Cl  Cl15989  1  0.93333333  0.60000000  0.13333333  1
  Cl  Cl15990  1  0.93333333  0.60000000  0.33333333  1
  Cl  Cl15991  1  0.93333333  0.60000000  0.53333333  1
  Cl  Cl15992  1  0.93333333  0.60000000  0.73333333  1
  Cl  Cl15993  1  0.93333333  0.60000000  0.93333333  1
  Cl  Cl15994  1  0.93333333  0.80000000  0.13333333  1
  Cl  Cl15995  1  0.93333333  0.80000000  0.33333333  1
  Cl  Cl15996  1  0.93333333  0.80000000  0.53333333  1
  Cl  Cl15997  1  0.93333333  0.80000000  0.73333333  1
  Cl  Cl15998  1  0.93333333  0.80000000  0.93333333  1
  Cl  Cl15999  1  0.13333333  0.06666667  0.00000000  1
  Cl  Cl16000  1  0.13333333  0.06666667  0.20000000  1
  Cl  Cl16001  1  0.13333333  0.06666667  0.40000000  1
  Cl  Cl16002  1  0.13333333  0.06666667  0.60000000  1
  Cl  Cl16003  1  0.13333333  0.06666667  0.80000000  1
  Cl  Cl16004  1  0.13333333  0.26666667  0.00000000  1
  Cl  Cl16005  1  0.13333333  0.26666667  0.20000000  1
  Cl  Cl16006  1  0.13333333  0.26666667  0.40000000  1
  Cl  Cl16007  1  0.13333333  0.26666667  0.60000000  1
  Cl  Cl16008  1  0.13333333  0.26666667  0.80000000  1
  Cl  Cl16009  1  0.13333333  0.46666667  0.00000000  1
  Cl  Cl16010  1  0.13333333  0.46666667  0.20000000  1
  Cl  Cl16011  1  0.13333333  0.46666667  0.40000000  1
  Cl  Cl16012  1  0.13333333  0.46666667  0.60000000  1
  Cl  Cl16013  1  0.13333333  0.46666667  0.80000000  1
  Cl  Cl16014  1  0.13333333  0.66666667  0.00000000  1
  Cl  Cl16015  1  0.13333333  0.66666667  0.20000000  1
  Cl  Cl16016  1  0.13333333  0.66666667  0.40000000  1
  Cl  Cl16017  1  0.13333333  0.66666667  0.60000000  1
  Cl  Cl16018  1  0.13333333  0.66666667  0.80000000  1
  Cl  Cl16019  1  0.13333333  0.86666667  0.00000000  1
  Cl  Cl16020  1  0.13333333  0.86666667  0.20000000  1
  Cl  Cl16021  1  0.13333333  0.86666667  0.40000000  1
  Cl  Cl16022  1  0.13333333  0.86666667  0.60000000  1
  Cl  Cl16023  1  0.13333333  0.86666667  0.80000000  1
  Cl  Cl16024  1  0.33333333  0.06666667  0.00000000  1
  Cl  Cl16025  1  0.33333333  0.06666667  0.20000000  1
  Cl  Cl16026  1  0.33333333  0.06666667  0.40000000  1
  Cl  Cl16027  1  0.33333333  0.06666667  0.60000000  1
  Cl  Cl16028  1  0.33333333  0.06666667  0.80000000  1
  Cl  Cl16029  1  0.33333333  0.26666667  0.00000000  1
  Cl  Cl16030  1  0.33333333  0.26666667  0.20000000  1
  Cl  Cl16031  1  0.33333333  0.26666667  0.40000000  1
  Cl  Cl16032  1  0.33333333  0.26666667  0.60000000  1
  Cl  Cl16033  1  0.33333333  0.26666667  0.80000000  1
  Cl  Cl16034  1  0.33333333  0.46666667  0.00000000  1
  Cl  Cl16035  1  0.33333333  0.46666667  0.20000000  1
  Cl  Cl16036  1  0.33333333  0.46666667  0.40000000  1
  Cl  Cl16037  1  0.33333333  0.46666667  0.60000000  1
  Cl  Cl16038  1  0.33333333  0.46666667  0.80000000  1
  Cl  Cl16039  1  0.33333333  0.66666667  0.00000000  1
  Cl  Cl16040  1  0.33333333  0.66666667  0.20000000  1
  Cl  Cl16041  1  0.33333333  0.66666667  0.40000000  1
  Cl  Cl16042  1  0.33333333  0.66666667  0.60000000  1
  Cl  Cl16043  1  0.33333333  0.66666667  0.80000000  1
  Cl  Cl16044  1  0.33333333  0.86666667  0.00000000  1
  Cl  Cl16045  1  0.33333333  0.86666667  0.20000000  1
  Cl  Cl16046  1  0.33333333  0.86666667  0.40000000  1
  Cl  Cl16047  1  0.33333333  0.86666667  0.60000000  1
  Cl  Cl16048  1  0.33333333  0.86666667  0.80000000  1
  Cl  Cl16049  1  0.53333333  0.06666667  0.00000000  1
  Cl  Cl16050  1  0.53333333  0.06666667  0.20000000  1
  Cl  Cl16051  1  0.53333333  0.06666667  0.40000000  1
  Cl  Cl16052  1  0.53333333  0.06666667  0.60000000  1
  Cl  Cl16053  1  0.53333333  0.06666667  0.80000000  1
  Cl  Cl16054  1  0.53333333  0.26666667  0.00000000  1
  Cl  Cl16055  1  0.53333333  0.26666667  0.20000000  1
  Cl  Cl16056  1  0.53333333  0.26666667  0.40000000  1
  Cl  Cl16057  1  0.53333333  0.26666667  0.60000000  1
  Cl  Cl16058  1  0.53333333  0.26666667  0.80000000  1
  Cl  Cl16059  1  0.53333333  0.46666667  0.00000000  1
  Cl  Cl16060  1  0.53333333  0.46666667  0.20000000  1
  Cl  Cl16061  1  0.53333333  0.46666667  0.40000000  1
  Cl  Cl16062  1  0.53333333  0.46666667  0.60000000  1
  Cl  Cl16063  1  0.53333333  0.46666667  0.80000000  1
  Cl  Cl16064  1  0.53333333  0.66666667  0.00000000  1
  Cl  Cl16065  1  0.53333333  0.66666667  0.20000000  1
  Cl  Cl16066  1  0.53333333  0.66666667  0.40000000  1
  Cl  Cl16067  1  0.53333333  0.66666667  0.60000000  1
  Cl  Cl16068  1  0.53333333  0.66666667  0.80000000  1
  Cl  Cl16069  1  0.53333333  0.86666667  0.00000000  1
  Cl  Cl16070  1  0.53333333  0.86666667  0.20000000  1
  Cl  Cl16071  1  0.53333333  0.86666667  0.40000000  1
  Cl  Cl16072  1  0.53333333  0.86666667  0.60000000  1
  Cl  Cl16073  1  0.53333333  0.86666667  0.80000000  1
  Cl  Cl16074  1  0.73333333  0.06666667  0.00000000  1
  Cl  Cl16075  1  0.73333333  0.06666667  0.20000000  1
  Cl  Cl16076  1  0.73333333  0.06666667  0.40000000  1
  Cl  Cl16077  1  0.73333333  0.06666667  0.60000000  1
  Cl  Cl16078  1  0.73333333  0.06666667  0.80000000  1
  Cl  Cl16079  1  0.73333333  0.26666667  0.00000000  1
  Cl  Cl16080  1  0.73333333  0.26666667  0.20000000  1
  Cl  Cl16081  1  0.73333333  0.26666667  0.40000000  1
  Cl  Cl16082  1  0.73333333  0.26666667  0.60000000  1
  Cl  Cl16083  1  0.73333333  0.26666667  0.80000000  1
  Cl  Cl16084  1  0.73333333  0.46666667  0.00000000  1
  Cl  Cl16085  1  0.73333333  0.46666667  0.20000000  1
  Cl  Cl16086  1  0.73333333  0.46666667  0.40000000  1
  Cl  Cl16087  1  0.73333333  0.46666667  0.60000000  1
  Cl  Cl16088  1  0.73333333  0.46666667  0.80000000  1
  Cl  Cl16089  1  0.73333333  0.66666667  0.00000000  1
  Cl  Cl16090  1  0.73333333  0.66666667  0.20000000  1
  Cl  Cl16091  1  0.73333333  0.66666667  0.40000000  1
  Cl  Cl16092  1  0.73333333  0.66666667  0.60000000  1
  Cl  Cl16093  1  0.73333333  0.66666667  0.80000000  1
  Cl  Cl16094  1  0.73333333  0.86666667  0.00000000  1
  Cl  Cl16095  1  0.73333333  0.86666667  0.20000000  1
  Cl  Cl16096  1  0.73333333  0.86666667  0.40000000  1
  Cl  Cl16097  1  0.73333333  0.86666667  0.60000000  1
  Cl  Cl16098  1  0.73333333  0.86666667  0.80000000  1
  Cl  Cl16099  1  0.93333333  0.06666667  0.00000000  1
  Cl  Cl16100  1  0.93333333  0.06666667  0.20000000  1
  Cl  Cl16101  1  0.93333333  0.06666667  0.40000000  1
  Cl  Cl16102  1  0.93333333  0.06666667  0.60000000  1
  Cl  Cl16103  1  0.93333333  0.06666667  0.80000000  1
  Cl  Cl16104  1  0.93333333  0.26666667  0.00000000  1
  Cl  Cl16105  1  0.93333333  0.26666667  0.20000000  1
  Cl  Cl16106  1  0.93333333  0.26666667  0.40000000  1
  Cl  Cl16107  1  0.93333333  0.26666667  0.60000000  1
  Cl  Cl16108  1  0.93333333  0.26666667  0.80000000  1
  Cl  Cl16109  1  0.93333333  0.46666667  0.00000000  1
  Cl  Cl16110  1  0.93333333  0.46666667  0.20000000  1
  Cl  Cl16111  1  0.93333333  0.46666667  0.40000000  1
  Cl  Cl16112  1  0.93333333  0.46666667  0.60000000  1
  Cl  Cl16113  1  0.93333333  0.46666667  0.80000000  1
  Cl  Cl16114  1  0.93333333  0.66666667  0.00000000  1
  Cl  Cl16115  1  0.93333333  0.66666667  0.20000000  1
  Cl  Cl16116  1  0.93333333  0.66666667  0.40000000  1
  Cl  Cl16117  1  0.93333333  0.66666667  0.60000000  1
  Cl  Cl16118  1  0.93333333  0.66666667  0.80000000  1
  Cl  Cl16119  1  0.93333333  0.86666667  0.00000000  1
  Cl  Cl16120  1  0.93333333  0.86666667  0.20000000  1
  Cl  Cl16121  1  0.93333333  0.86666667  0.40000000  1
  Cl  Cl16122  1  0.93333333  0.86666667  0.60000000  1
  Cl  Cl16123  1  0.93333333  0.86666667  0.80000000  1
  Cl  Cl16124  1  0.13333333  0.06666667  0.06666667  1
  Cl  Cl16125  1  0.13333333  0.06666667  0.26666667  1
  Cl  Cl16126  1  0.13333333  0.06666667  0.46666667  1
  Cl  Cl16127  1  0.13333333  0.06666667  0.66666667  1
  Cl  Cl16128  1  0.13333333  0.06666667  0.86666667  1
  Cl  Cl16129  1  0.13333333  0.26666667  0.06666667  1
  Cl  Cl16130  1  0.13333333  0.26666667  0.26666667  1
  Cl  Cl16131  1  0.13333333  0.26666667  0.46666667  1
  Cl  Cl16132  1  0.13333333  0.26666667  0.66666667  1
  Cl  Cl16133  1  0.13333333  0.26666667  0.86666667  1
  Cl  Cl16134  1  0.13333333  0.46666667  0.06666667  1
  Cl  Cl16135  1  0.13333333  0.46666667  0.26666667  1
  Cl  Cl16136  1  0.13333333  0.46666667  0.46666667  1
  Cl  Cl16137  1  0.13333333  0.46666667  0.66666667  1
  Cl  Cl16138  1  0.13333333  0.46666667  0.86666667  1
  Cl  Cl16139  1  0.13333333  0.66666667  0.06666667  1
  Cl  Cl16140  1  0.13333333  0.66666667  0.26666667  1
  Cl  Cl16141  1  0.13333333  0.66666667  0.46666667  1
  Cl  Cl16142  1  0.13333333  0.66666667  0.66666667  1
  Cl  Cl16143  1  0.13333333  0.66666667  0.86666667  1
  Cl  Cl16144  1  0.13333333  0.86666667  0.06666667  1
  Cl  Cl16145  1  0.13333333  0.86666667  0.26666667  1
  Cl  Cl16146  1  0.13333333  0.86666667  0.46666667  1
  Cl  Cl16147  1  0.13333333  0.86666667  0.66666667  1
  Cl  Cl16148  1  0.13333333  0.86666667  0.86666667  1
  Cl  Cl16149  1  0.33333333  0.06666667  0.06666667  1
  Cl  Cl16150  1  0.33333333  0.06666667  0.26666667  1
  Cl  Cl16151  1  0.33333333  0.06666667  0.46666667  1
  Cl  Cl16152  1  0.33333333  0.06666667  0.66666667  1
  Cl  Cl16153  1  0.33333333  0.06666667  0.86666667  1
  Cl  Cl16154  1  0.33333333  0.26666667  0.06666667  1
  Cl  Cl16155  1  0.33333333  0.26666667  0.26666667  1
  Cl  Cl16156  1  0.33333333  0.26666667  0.46666667  1
  Cl  Cl16157  1  0.33333333  0.26666667  0.66666667  1
  Cl  Cl16158  1  0.33333333  0.26666667  0.86666667  1
  Cl  Cl16159  1  0.33333333  0.46666667  0.06666667  1
  Cl  Cl16160  1  0.33333333  0.46666667  0.26666667  1
  Cl  Cl16161  1  0.33333333  0.46666667  0.46666667  1
  Cl  Cl16162  1  0.33333333  0.46666667  0.66666667  1
  Cl  Cl16163  1  0.33333333  0.46666667  0.86666667  1
  Cl  Cl16164  1  0.33333333  0.66666667  0.06666667  1
  Cl  Cl16165  1  0.33333333  0.66666667  0.26666667  1
  Cl  Cl16166  1  0.33333333  0.66666667  0.46666667  1
  Cl  Cl16167  1  0.33333333  0.66666667  0.66666667  1
  Cl  Cl16168  1  0.33333333  0.66666667  0.86666667  1
  Cl  Cl16169  1  0.33333333  0.86666667  0.06666667  1
  Cl  Cl16170  1  0.33333333  0.86666667  0.26666667  1
  Cl  Cl16171  1  0.33333333  0.86666667  0.46666667  1
  Cl  Cl16172  1  0.33333333  0.86666667  0.66666667  1
  Cl  Cl16173  1  0.33333333  0.86666667  0.86666667  1
  Cl  Cl16174  1  0.53333333  0.06666667  0.06666667  1
  Cl  Cl16175  1  0.53333333  0.06666667  0.26666667  1
  Cl  Cl16176  1  0.53333333  0.06666667  0.46666667  1
  Cl  Cl16177  1  0.53333333  0.06666667  0.66666667  1
  Cl  Cl16178  1  0.53333333  0.06666667  0.86666667  1
  Cl  Cl16179  1  0.53333333  0.26666667  0.06666667  1
  Cl  Cl16180  1  0.53333333  0.26666667  0.26666667  1
  Cl  Cl16181  1  0.53333333  0.26666667  0.46666667  1
  Cl  Cl16182  1  0.53333333  0.26666667  0.66666667  1
  Cl  Cl16183  1  0.53333333  0.26666667  0.86666667  1
  Cl  Cl16184  1  0.53333333  0.46666667  0.06666667  1
  Cl  Cl16185  1  0.53333333  0.46666667  0.26666667  1
  Cl  Cl16186  1  0.53333333  0.46666667  0.46666667  1
  Cl  Cl16187  1  0.53333333  0.46666667  0.66666667  1
  Cl  Cl16188  1  0.53333333  0.46666667  0.86666667  1
  Cl  Cl16189  1  0.53333333  0.66666667  0.06666667  1
  Cl  Cl16190  1  0.53333333  0.66666667  0.26666667  1
  Cl  Cl16191  1  0.53333333  0.66666667  0.46666667  1
  Cl  Cl16192  1  0.53333333  0.66666667  0.66666667  1
  Cl  Cl16193  1  0.53333333  0.66666667  0.86666667  1
  Cl  Cl16194  1  0.53333333  0.86666667  0.06666667  1
  Cl  Cl16195  1  0.53333333  0.86666667  0.26666667  1
  Cl  Cl16196  1  0.53333333  0.86666667  0.46666667  1
  Cl  Cl16197  1  0.53333333  0.86666667  0.66666667  1
  Cl  Cl16198  1  0.53333333  0.86666667  0.86666667  1
  Cl  Cl16199  1  0.73333333  0.06666667  0.06666667  1
  Cl  Cl16200  1  0.73333333  0.06666667  0.26666667  1
  Cl  Cl16201  1  0.73333333  0.06666667  0.46666667  1
  Cl  Cl16202  1  0.73333333  0.06666667  0.66666667  1
  Cl  Cl16203  1  0.73333333  0.06666667  0.86666667  1
  Cl  Cl16204  1  0.73333333  0.26666667  0.06666667  1
  Cl  Cl16205  1  0.73333333  0.26666667  0.26666667  1
  Cl  Cl16206  1  0.73333333  0.26666667  0.46666667  1
  Cl  Cl16207  1  0.73333333  0.26666667  0.66666667  1
  Cl  Cl16208  1  0.73333333  0.26666667  0.86666667  1
  Cl  Cl16209  1  0.73333333  0.46666667  0.06666667  1
  Cl  Cl16210  1  0.73333333  0.46666667  0.26666667  1
  Cl  Cl16211  1  0.73333333  0.46666667  0.46666667  1
  Cl  Cl16212  1  0.73333333  0.46666667  0.66666667  1
  Cl  Cl16213  1  0.73333333  0.46666667  0.86666667  1
  Cl  Cl16214  1  0.73333333  0.66666667  0.06666667  1
  Cl  Cl16215  1  0.73333333  0.66666667  0.26666667  1
  Cl  Cl16216  1  0.73333333  0.66666667  0.46666667  1
  Cl  Cl16217  1  0.73333333  0.66666667  0.66666667  1
  Cl  Cl16218  1  0.73333333  0.66666667  0.86666667  1
  Cl  Cl16219  1  0.73333333  0.86666667  0.06666667  1
  Cl  Cl16220  1  0.73333333  0.86666667  0.26666667  1
  Cl  Cl16221  1  0.73333333  0.86666667  0.46666667  1
  Cl  Cl16222  1  0.73333333  0.86666667  0.66666667  1
  Cl  Cl16223  1  0.73333333  0.86666667  0.86666667  1
  Cl  Cl16224  1  0.93333333  0.06666667  0.06666667  1
  Cl  Cl16225  1  0.93333333  0.06666667  0.26666667  1
  Cl  Cl16226  1  0.93333333  0.06666667  0.46666667  1
  Cl  Cl16227  1  0.93333333  0.06666667  0.66666667  1
  Cl  Cl16228  1  0.93333333  0.06666667  0.86666667  1
  Cl  Cl16229  1  0.93333333  0.26666667  0.06666667  1
  Cl  Cl16230  1  0.93333333  0.26666667  0.26666667  1
  Cl  Cl16231  1  0.93333333  0.26666667  0.46666667  1
  Cl  Cl16232  1  0.93333333  0.26666667  0.66666667  1
  Cl  Cl16233  1  0.93333333  0.26666667  0.86666667  1
  Cl  Cl16234  1  0.93333333  0.46666667  0.06666667  1
  Cl  Cl16235  1  0.93333333  0.46666667  0.26666667  1
  Cl  Cl16236  1  0.93333333  0.46666667  0.46666667  1
  Cl  Cl16237  1  0.93333333  0.46666667  0.66666667  1
  Cl  Cl16238  1  0.93333333  0.46666667  0.86666667  1
  Cl  Cl16239  1  0.93333333  0.66666667  0.06666667  1
  Cl  Cl16240  1  0.93333333  0.66666667  0.26666667  1
  Cl  Cl16241  1  0.93333333  0.66666667  0.46666667  1
  Cl  Cl16242  1  0.93333333  0.66666667  0.66666667  1
  Cl  Cl16243  1  0.93333333  0.66666667  0.86666667  1
  Cl  Cl16244  1  0.93333333  0.86666667  0.06666667  1
  Cl  Cl16245  1  0.93333333  0.86666667  0.26666667  1
  Cl  Cl16246  1  0.93333333  0.86666667  0.46666667  1
  Cl  Cl16247  1  0.93333333  0.86666667  0.66666667  1
  Cl  Cl16248  1  0.93333333  0.86666667  0.86666667  1
  Cl  Cl16249  1  0.13333333  0.06666667  0.13333333  1
  Cl  Cl16250  1  0.13333333  0.06666667  0.33333333  1
  Cl  Cl16251  1  0.13333333  0.06666667  0.53333333  1
  Cl  Cl16252  1  0.13333333  0.06666667  0.73333333  1
  Cl  Cl16253  1  0.13333333  0.06666667  0.93333333  1
  Cl  Cl16254  1  0.13333333  0.26666667  0.13333333  1
  Cl  Cl16255  1  0.13333333  0.26666667  0.33333333  1
  Cl  Cl16256  1  0.13333333  0.26666667  0.53333333  1
  Cl  Cl16257  1  0.13333333  0.26666667  0.73333333  1
  Cl  Cl16258  1  0.13333333  0.26666667  0.93333333  1
  Cl  Cl16259  1  0.13333333  0.46666667  0.13333333  1
  Cl  Cl16260  1  0.13333333  0.46666667  0.33333333  1
  Cl  Cl16261  1  0.13333333  0.46666667  0.53333333  1
  Cl  Cl16262  1  0.13333333  0.46666667  0.73333333  1
  Cl  Cl16263  1  0.13333333  0.46666667  0.93333333  1
  Cl  Cl16264  1  0.13333333  0.66666667  0.13333333  1
  Cl  Cl16265  1  0.13333333  0.66666667  0.33333333  1
  Cl  Cl16266  1  0.13333333  0.66666667  0.53333333  1
  Cl  Cl16267  1  0.13333333  0.66666667  0.73333333  1
  Cl  Cl16268  1  0.13333333  0.66666667  0.93333333  1
  Cl  Cl16269  1  0.13333333  0.86666667  0.13333333  1
  Cl  Cl16270  1  0.13333333  0.86666667  0.33333333  1
  Cl  Cl16271  1  0.13333333  0.86666667  0.53333333  1
  Cl  Cl16272  1  0.13333333  0.86666667  0.73333333  1
  Cl  Cl16273  1  0.13333333  0.86666667  0.93333333  1
  Cl  Cl16274  1  0.33333333  0.06666667  0.13333333  1
  Cl  Cl16275  1  0.33333333  0.06666667  0.33333333  1
  Cl  Cl16276  1  0.33333333  0.06666667  0.53333333  1
  Cl  Cl16277  1  0.33333333  0.06666667  0.73333333  1
  Cl  Cl16278  1  0.33333333  0.06666667  0.93333333  1
  Cl  Cl16279  1  0.33333333  0.26666667  0.13333333  1
  Cl  Cl16280  1  0.33333333  0.26666667  0.33333333  1
  Cl  Cl16281  1  0.33333333  0.26666667  0.53333333  1
  Cl  Cl16282  1  0.33333333  0.26666667  0.73333333  1
  Cl  Cl16283  1  0.33333333  0.26666667  0.93333333  1
  Cl  Cl16284  1  0.33333333  0.46666667  0.13333333  1
  Cl  Cl16285  1  0.33333333  0.46666667  0.33333333  1
  Cl  Cl16286  1  0.33333333  0.46666667  0.53333333  1
  Cl  Cl16287  1  0.33333333  0.46666667  0.73333333  1
  Cl  Cl16288  1  0.33333333  0.46666667  0.93333333  1
  Cl  Cl16289  1  0.33333333  0.66666667  0.13333333  1
  Cl  Cl16290  1  0.33333333  0.66666667  0.33333333  1
  Cl  Cl16291  1  0.33333333  0.66666667  0.53333333  1
  Cl  Cl16292  1  0.33333333  0.66666667  0.73333333  1
  Cl  Cl16293  1  0.33333333  0.66666667  0.93333333  1
  Cl  Cl16294  1  0.33333333  0.86666667  0.13333333  1
  Cl  Cl16295  1  0.33333333  0.86666667  0.33333333  1
  Cl  Cl16296  1  0.33333333  0.86666667  0.53333333  1
  Cl  Cl16297  1  0.33333333  0.86666667  0.73333333  1
  Cl  Cl16298  1  0.33333333  0.86666667  0.93333333  1
  Cl  Cl16299  1  0.53333333  0.06666667  0.13333333  1
  Cl  Cl16300  1  0.53333333  0.06666667  0.33333333  1
  Cl  Cl16301  1  0.53333333  0.06666667  0.53333333  1
  Cl  Cl16302  1  0.53333333  0.06666667  0.73333333  1
  Cl  Cl16303  1  0.53333333  0.06666667  0.93333333  1
  Cl  Cl16304  1  0.53333333  0.26666667  0.13333333  1
  Cl  Cl16305  1  0.53333333  0.26666667  0.33333333  1
  Cl  Cl16306  1  0.53333333  0.26666667  0.53333333  1
  Cl  Cl16307  1  0.53333333  0.26666667  0.73333333  1
  Cl  Cl16308  1  0.53333333  0.26666667  0.93333333  1
  Cl  Cl16309  1  0.53333333  0.46666667  0.13333333  1
  Cl  Cl16310  1  0.53333333  0.46666667  0.33333333  1
  Cl  Cl16311  1  0.53333333  0.46666667  0.53333333  1
  Cl  Cl16312  1  0.53333333  0.46666667  0.73333333  1
  Cl  Cl16313  1  0.53333333  0.46666667  0.93333333  1
  Cl  Cl16314  1  0.53333333  0.66666667  0.13333333  1
  Cl  Cl16315  1  0.53333333  0.66666667  0.33333333  1
  Cl  Cl16316  1  0.53333333  0.66666667  0.53333333  1
  Cl  Cl16317  1  0.53333333  0.66666667  0.73333333  1
  Cl  Cl16318  1  0.53333333  0.66666667  0.93333333  1
  Cl  Cl16319  1  0.53333333  0.86666667  0.13333333  1
  Cl  Cl16320  1  0.53333333  0.86666667  0.33333333  1
  Cl  Cl16321  1  0.53333333  0.86666667  0.53333333  1
  Cl  Cl16322  1  0.53333333  0.86666667  0.73333333  1
  Cl  Cl16323  1  0.53333333  0.86666667  0.93333333  1
  Cl  Cl16324  1  0.73333333  0.06666667  0.13333333  1
  Cl  Cl16325  1  0.73333333  0.06666667  0.33333333  1
  Cl  Cl16326  1  0.73333333  0.06666667  0.53333333  1
  Cl  Cl16327  1  0.73333333  0.06666667  0.73333333  1
  Cl  Cl16328  1  0.73333333  0.06666667  0.93333333  1
  Cl  Cl16329  1  0.73333333  0.26666667  0.13333333  1
  Cl  Cl16330  1  0.73333333  0.26666667  0.33333333  1
  Cl  Cl16331  1  0.73333333  0.26666667  0.53333333  1
  Cl  Cl16332  1  0.73333333  0.26666667  0.73333333  1
  Cl  Cl16333  1  0.73333333  0.26666667  0.93333333  1
  Cl  Cl16334  1  0.73333333  0.46666667  0.13333333  1
  Cl  Cl16335  1  0.73333333  0.46666667  0.33333333  1
  Cl  Cl16336  1  0.73333333  0.46666667  0.53333333  1
  Cl  Cl16337  1  0.73333333  0.46666667  0.73333333  1
  Cl  Cl16338  1  0.73333333  0.46666667  0.93333333  1
  Cl  Cl16339  1  0.73333333  0.66666667  0.13333333  1
  Cl  Cl16340  1  0.73333333  0.66666667  0.33333333  1
  Cl  Cl16341  1  0.73333333  0.66666667  0.53333333  1
  Cl  Cl16342  1  0.73333333  0.66666667  0.73333333  1
  Cl  Cl16343  1  0.73333333  0.66666667  0.93333333  1
  Cl  Cl16344  1  0.73333333  0.86666667  0.13333333  1
  Cl  Cl16345  1  0.73333333  0.86666667  0.33333333  1
  Cl  Cl16346  1  0.73333333  0.86666667  0.53333333  1
  Cl  Cl16347  1  0.73333333  0.86666667  0.73333333  1
  Cl  Cl16348  1  0.73333333  0.86666667  0.93333333  1
  Cl  Cl16349  1  0.93333333  0.06666667  0.13333333  1
  Cl  Cl16350  1  0.93333333  0.06666667  0.33333333  1
  Cl  Cl16351  1  0.93333333  0.06666667  0.53333333  1
  Cl  Cl16352  1  0.93333333  0.06666667  0.73333333  1
  Cl  Cl16353  1  0.93333333  0.06666667  0.93333333  1
  Cl  Cl16354  1  0.93333333  0.26666667  0.13333333  1
  Cl  Cl16355  1  0.93333333  0.26666667  0.33333333  1
  Cl  Cl16356  1  0.93333333  0.26666667  0.53333333  1
  Cl  Cl16357  1  0.93333333  0.26666667  0.73333333  1
  Cl  Cl16358  1  0.93333333  0.26666667  0.93333333  1
  Cl  Cl16359  1  0.93333333  0.46666667  0.13333333  1
  Cl  Cl16360  1  0.93333333  0.46666667  0.33333333  1
  Cl  Cl16361  1  0.93333333  0.46666667  0.53333333  1
  Cl  Cl16362  1  0.93333333  0.46666667  0.73333333  1
  Cl  Cl16363  1  0.93333333  0.46666667  0.93333333  1
  Cl  Cl16364  1  0.93333333  0.66666667  0.13333333  1
  Cl  Cl16365  1  0.93333333  0.66666667  0.33333333  1
  Cl  Cl16366  1  0.93333333  0.66666667  0.53333333  1
  Cl  Cl16367  1  0.93333333  0.66666667  0.73333333  1
  Cl  Cl16368  1  0.93333333  0.66666667  0.93333333  1
  Cl  Cl16369  1  0.93333333  0.86666667  0.13333333  1
  Cl  Cl16370  1  0.93333333  0.86666667  0.33333333  1
  Cl  Cl16371  1  0.93333333  0.86666667  0.53333333  1
  Cl  Cl16372  1  0.93333333  0.86666667  0.73333333  1
  Cl  Cl16373  1  0.93333333  0.86666667  0.93333333  1
  Cl  Cl16374  1  0.13333333  0.13333333  0.00000000  1
  Cl  Cl16375  1  0.13333333  0.13333333  0.20000000  1
  Cl  Cl16376  1  0.13333333  0.13333333  0.40000000  1
  Cl  Cl16377  1  0.13333333  0.13333333  0.60000000  1
  Cl  Cl16378  1  0.13333333  0.13333333  0.80000000  1
  Cl  Cl16379  1  0.13333333  0.33333333  0.00000000  1
  Cl  Cl16380  1  0.13333333  0.33333333  0.20000000  1
  Cl  Cl16381  1  0.13333333  0.33333333  0.40000000  1
  Cl  Cl16382  1  0.13333333  0.33333333  0.60000000  1
  Cl  Cl16383  1  0.13333333  0.33333333  0.80000000  1
  Cl  Cl16384  1  0.13333333  0.53333333  0.00000000  1
  Cl  Cl16385  1  0.13333333  0.53333333  0.20000000  1
  Cl  Cl16386  1  0.13333333  0.53333333  0.40000000  1
  Cl  Cl16387  1  0.13333333  0.53333333  0.60000000  1
  Cl  Cl16388  1  0.13333333  0.53333333  0.80000000  1
  Cl  Cl16389  1  0.13333333  0.73333333  0.00000000  1
  Cl  Cl16390  1  0.13333333  0.73333333  0.20000000  1
  Cl  Cl16391  1  0.13333333  0.73333333  0.40000000  1
  Cl  Cl16392  1  0.13333333  0.73333333  0.60000000  1
  Cl  Cl16393  1  0.13333333  0.73333333  0.80000000  1
  Cl  Cl16394  1  0.13333333  0.93333333  0.00000000  1
  Cl  Cl16395  1  0.13333333  0.93333333  0.20000000  1
  Cl  Cl16396  1  0.13333333  0.93333333  0.40000000  1
  Cl  Cl16397  1  0.13333333  0.93333333  0.60000000  1
  Cl  Cl16398  1  0.13333333  0.93333333  0.80000000  1
  Cl  Cl16399  1  0.33333333  0.13333333  0.00000000  1
  Cl  Cl16400  1  0.33333333  0.13333333  0.20000000  1
  Cl  Cl16401  1  0.33333333  0.13333333  0.40000000  1
  Cl  Cl16402  1  0.33333333  0.13333333  0.60000000  1
  Cl  Cl16403  1  0.33333333  0.13333333  0.80000000  1
  Cl  Cl16404  1  0.33333333  0.33333333  0.00000000  1
  Cl  Cl16405  1  0.33333333  0.33333333  0.20000000  1
  Cl  Cl16406  1  0.33333333  0.33333333  0.40000000  1
  Cl  Cl16407  1  0.33333333  0.33333333  0.60000000  1
  Cl  Cl16408  1  0.33333333  0.33333333  0.80000000  1
  Cl  Cl16409  1  0.33333333  0.53333333  0.00000000  1
  Cl  Cl16410  1  0.33333333  0.53333333  0.20000000  1
  Cl  Cl16411  1  0.33333333  0.53333333  0.40000000  1
  Cl  Cl16412  1  0.33333333  0.53333333  0.60000000  1
  Cl  Cl16413  1  0.33333333  0.53333333  0.80000000  1
  Cl  Cl16414  1  0.33333333  0.73333333  0.00000000  1
  Cl  Cl16415  1  0.33333333  0.73333333  0.20000000  1
  Cl  Cl16416  1  0.33333333  0.73333333  0.40000000  1
  Cl  Cl16417  1  0.33333333  0.73333333  0.60000000  1
  Cl  Cl16418  1  0.33333333  0.73333333  0.80000000  1
  Cl  Cl16419  1  0.33333333  0.93333333  0.00000000  1
  Cl  Cl16420  1  0.33333333  0.93333333  0.20000000  1
  Cl  Cl16421  1  0.33333333  0.93333333  0.40000000  1
  Cl  Cl16422  1  0.33333333  0.93333333  0.60000000  1
  Cl  Cl16423  1  0.33333333  0.93333333  0.80000000  1
  Cl  Cl16424  1  0.53333333  0.13333333  0.00000000  1
  Cl  Cl16425  1  0.53333333  0.13333333  0.20000000  1
  Cl  Cl16426  1  0.53333333  0.13333333  0.40000000  1
  Cl  Cl16427  1  0.53333333  0.13333333  0.60000000  1
  Cl  Cl16428  1  0.53333333  0.13333333  0.80000000  1
  Cl  Cl16429  1  0.53333333  0.33333333  0.00000000  1
  Cl  Cl16430  1  0.53333333  0.33333333  0.20000000  1
  Cl  Cl16431  1  0.53333333  0.33333333  0.40000000  1
  Cl  Cl16432  1  0.53333333  0.33333333  0.60000000  1
  Cl  Cl16433  1  0.53333333  0.33333333  0.80000000  1
  Cl  Cl16434  1  0.53333333  0.53333333  0.00000000  1
  Cl  Cl16435  1  0.53333333  0.53333333  0.20000000  1
  Cl  Cl16436  1  0.53333333  0.53333333  0.40000000  1
  Cl  Cl16437  1  0.53333333  0.53333333  0.60000000  1
  Cl  Cl16438  1  0.53333333  0.53333333  0.80000000  1
  Cl  Cl16439  1  0.53333333  0.73333333  0.00000000  1
  Cl  Cl16440  1  0.53333333  0.73333333  0.20000000  1
  Cl  Cl16441  1  0.53333333  0.73333333  0.40000000  1
  Cl  Cl16442  1  0.53333333  0.73333333  0.60000000  1
  Cl  Cl16443  1  0.53333333  0.73333333  0.80000000  1
  Cl  Cl16444  1  0.53333333  0.93333333  0.00000000  1
  Cl  Cl16445  1  0.53333333  0.93333333  0.20000000  1
  Cl  Cl16446  1  0.53333333  0.93333333  0.40000000  1
  Cl  Cl16447  1  0.53333333  0.93333333  0.60000000  1
  Cl  Cl16448  1  0.53333333  0.93333333  0.80000000  1
  Cl  Cl16449  1  0.73333333  0.13333333  0.00000000  1
  Cl  Cl16450  1  0.73333333  0.13333333  0.20000000  1
  Cl  Cl16451  1  0.73333333  0.13333333  0.40000000  1
  Cl  Cl16452  1  0.73333333  0.13333333  0.60000000  1
  Cl  Cl16453  1  0.73333333  0.13333333  0.80000000  1
  Cl  Cl16454  1  0.73333333  0.33333333  0.00000000  1
  Cl  Cl16455  1  0.73333333  0.33333333  0.20000000  1
  Cl  Cl16456  1  0.73333333  0.33333333  0.40000000  1
  Cl  Cl16457  1  0.73333333  0.33333333  0.60000000  1
  Cl  Cl16458  1  0.73333333  0.33333333  0.80000000  1
  Cl  Cl16459  1  0.73333333  0.53333333  0.00000000  1
  Cl  Cl16460  1  0.73333333  0.53333333  0.20000000  1
  Cl  Cl16461  1  0.73333333  0.53333333  0.40000000  1
  Cl  Cl16462  1  0.73333333  0.53333333  0.60000000  1
  Cl  Cl16463  1  0.73333333  0.53333333  0.80000000  1
  Cl  Cl16464  1  0.73333333  0.73333333  0.00000000  1
  Cl  Cl16465  1  0.73333333  0.73333333  0.20000000  1
  Cl  Cl16466  1  0.73333333  0.73333333  0.40000000  1
  Cl  Cl16467  1  0.73333333  0.73333333  0.60000000  1
  Cl  Cl16468  1  0.73333333  0.73333333  0.80000000  1
  Cl  Cl16469  1  0.73333333  0.93333333  0.00000000  1
  Cl  Cl16470  1  0.73333333  0.93333333  0.20000000  1
  Cl  Cl16471  1  0.73333333  0.93333333  0.40000000  1
  Cl  Cl16472  1  0.73333333  0.93333333  0.60000000  1
  Cl  Cl16473  1  0.73333333  0.93333333  0.80000000  1
  Cl  Cl16474  1  0.93333333  0.13333333  0.00000000  1
  Cl  Cl16475  1  0.93333333  0.13333333  0.20000000  1
  Cl  Cl16476  1  0.93333333  0.13333333  0.40000000  1
  Cl  Cl16477  1  0.93333333  0.13333333  0.60000000  1
  Cl  Cl16478  1  0.93333333  0.13333333  0.80000000  1
  Cl  Cl16479  1  0.93333333  0.33333333  0.00000000  1
  Cl  Cl16480  1  0.93333333  0.33333333  0.20000000  1
  Cl  Cl16481  1  0.93333333  0.33333333  0.40000000  1
  Cl  Cl16482  1  0.93333333  0.33333333  0.60000000  1
  Cl  Cl16483  1  0.93333333  0.33333333  0.80000000  1
  Cl  Cl16484  1  0.93333333  0.53333333  0.00000000  1
  Cl  Cl16485  1  0.93333333  0.53333333  0.20000000  1
  Cl  Cl16486  1  0.93333333  0.53333333  0.40000000  1
  Cl  Cl16487  1  0.93333333  0.53333333  0.60000000  1
  Cl  Cl16488  1  0.93333333  0.53333333  0.80000000  1
  Cl  Cl16489  1  0.93333333  0.73333333  0.00000000  1
  Cl  Cl16490  1  0.93333333  0.73333333  0.20000000  1
  Cl  Cl16491  1  0.93333333  0.73333333  0.40000000  1
  Cl  Cl16492  1  0.93333333  0.73333333  0.60000000  1
  Cl  Cl16493  1  0.93333333  0.73333333  0.80000000  1
  Cl  Cl16494  1  0.93333333  0.93333333  0.00000000  1
  Cl  Cl16495  1  0.93333333  0.93333333  0.20000000  1
  Cl  Cl16496  1  0.93333333  0.93333333  0.40000000  1
  Cl  Cl16497  1  0.93333333  0.93333333  0.60000000  1
  Cl  Cl16498  1  0.93333333  0.93333333  0.80000000  1
  Cl  Cl16499  1  0.13333333  0.13333333  0.06666667  1
  Cl  Cl16500  1  0.13333333  0.13333333  0.26666667  1
  Cl  Cl16501  1  0.13333333  0.13333333  0.46666667  1
  Cl  Cl16502  1  0.13333333  0.13333333  0.66666667  1
  Cl  Cl16503  1  0.13333333  0.13333333  0.86666667  1
  Cl  Cl16504  1  0.13333333  0.33333333  0.06666667  1
  Cl  Cl16505  1  0.13333333  0.33333333  0.26666667  1
  Cl  Cl16506  1  0.13333333  0.33333333  0.46666667  1
  Cl  Cl16507  1  0.13333333  0.33333333  0.66666667  1
  Cl  Cl16508  1  0.13333333  0.33333333  0.86666667  1
  Cl  Cl16509  1  0.13333333  0.53333333  0.06666667  1
  Cl  Cl16510  1  0.13333333  0.53333333  0.26666667  1
  Cl  Cl16511  1  0.13333333  0.53333333  0.46666667  1
  Cl  Cl16512  1  0.13333333  0.53333333  0.66666667  1
  Cl  Cl16513  1  0.13333333  0.53333333  0.86666667  1
  Cl  Cl16514  1  0.13333333  0.73333333  0.06666667  1
  Cl  Cl16515  1  0.13333333  0.73333333  0.26666667  1
  Cl  Cl16516  1  0.13333333  0.73333333  0.46666667  1
  Cl  Cl16517  1  0.13333333  0.73333333  0.66666667  1
  Cl  Cl16518  1  0.13333333  0.73333333  0.86666667  1
  Cl  Cl16519  1  0.13333333  0.93333333  0.06666667  1
  Cl  Cl16520  1  0.13333333  0.93333333  0.26666667  1
  Cl  Cl16521  1  0.13333333  0.93333333  0.46666667  1
  Cl  Cl16522  1  0.13333333  0.93333333  0.66666667  1
  Cl  Cl16523  1  0.13333333  0.93333333  0.86666667  1
  Cl  Cl16524  1  0.33333333  0.13333333  0.06666667  1
  Cl  Cl16525  1  0.33333333  0.13333333  0.26666667  1
  Cl  Cl16526  1  0.33333333  0.13333333  0.46666667  1
  Cl  Cl16527  1  0.33333333  0.13333333  0.66666667  1
  Cl  Cl16528  1  0.33333333  0.13333333  0.86666667  1
  Cl  Cl16529  1  0.33333333  0.33333333  0.06666667  1
  Cl  Cl16530  1  0.33333333  0.33333333  0.26666667  1
  Cl  Cl16531  1  0.33333333  0.33333333  0.46666667  1
  Cl  Cl16532  1  0.33333333  0.33333333  0.66666667  1
  Cl  Cl16533  1  0.33333333  0.33333333  0.86666667  1
  Cl  Cl16534  1  0.33333333  0.53333333  0.06666667  1
  Cl  Cl16535  1  0.33333333  0.53333333  0.26666667  1
  Cl  Cl16536  1  0.33333333  0.53333333  0.46666667  1
  Cl  Cl16537  1  0.33333333  0.53333333  0.66666667  1
  Cl  Cl16538  1  0.33333333  0.53333333  0.86666667  1
  Cl  Cl16539  1  0.33333333  0.73333333  0.06666667  1
  Cl  Cl16540  1  0.33333333  0.73333333  0.26666667  1
  Cl  Cl16541  1  0.33333333  0.73333333  0.46666667  1
  Cl  Cl16542  1  0.33333333  0.73333333  0.66666667  1
  Cl  Cl16543  1  0.33333333  0.73333333  0.86666667  1
  Cl  Cl16544  1  0.33333333  0.93333333  0.06666667  1
  Cl  Cl16545  1  0.33333333  0.93333333  0.26666667  1
  Cl  Cl16546  1  0.33333333  0.93333333  0.46666667  1
  Cl  Cl16547  1  0.33333333  0.93333333  0.66666667  1
  Cl  Cl16548  1  0.33333333  0.93333333  0.86666667  1
  Cl  Cl16549  1  0.53333333  0.13333333  0.06666667  1
  Cl  Cl16550  1  0.53333333  0.13333333  0.26666667  1
  Cl  Cl16551  1  0.53333333  0.13333333  0.46666667  1
  Cl  Cl16552  1  0.53333333  0.13333333  0.66666667  1
  Cl  Cl16553  1  0.53333333  0.13333333  0.86666667  1
  Cl  Cl16554  1  0.53333333  0.33333333  0.06666667  1
  Cl  Cl16555  1  0.53333333  0.33333333  0.26666667  1
  Cl  Cl16556  1  0.53333333  0.33333333  0.46666667  1
  Cl  Cl16557  1  0.53333333  0.33333333  0.66666667  1
  Cl  Cl16558  1  0.53333333  0.33333333  0.86666667  1
  Cl  Cl16559  1  0.53333333  0.53333333  0.06666667  1
  Cl  Cl16560  1  0.53333333  0.53333333  0.26666667  1
  Cl  Cl16561  1  0.53333333  0.53333333  0.46666667  1
  Cl  Cl16562  1  0.53333333  0.53333333  0.66666667  1
  Cl  Cl16563  1  0.53333333  0.53333333  0.86666667  1
  Cl  Cl16564  1  0.53333333  0.73333333  0.06666667  1
  Cl  Cl16565  1  0.53333333  0.73333333  0.26666667  1
  Cl  Cl16566  1  0.53333333  0.73333333  0.46666667  1
  Cl  Cl16567  1  0.53333333  0.73333333  0.66666667  1
  Cl  Cl16568  1  0.53333333  0.73333333  0.86666667  1
  Cl  Cl16569  1  0.53333333  0.93333333  0.06666667  1
  Cl  Cl16570  1  0.53333333  0.93333333  0.26666667  1
  Cl  Cl16571  1  0.53333333  0.93333333  0.46666667  1
  Cl  Cl16572  1  0.53333333  0.93333333  0.66666667  1
  Cl  Cl16573  1  0.53333333  0.93333333  0.86666667  1
  Cl  Cl16574  1  0.73333333  0.13333333  0.06666667  1
  Cl  Cl16575  1  0.73333333  0.13333333  0.26666667  1
  Cl  Cl16576  1  0.73333333  0.13333333  0.46666667  1
  Cl  Cl16577  1  0.73333333  0.13333333  0.66666667  1
  Cl  Cl16578  1  0.73333333  0.13333333  0.86666667  1
  Cl  Cl16579  1  0.73333333  0.33333333  0.06666667  1
  Cl  Cl16580  1  0.73333333  0.33333333  0.26666667  1
  Cl  Cl16581  1  0.73333333  0.33333333  0.46666667  1
  Cl  Cl16582  1  0.73333333  0.33333333  0.66666667  1
  Cl  Cl16583  1  0.73333333  0.33333333  0.86666667  1
  Cl  Cl16584  1  0.73333333  0.53333333  0.06666667  1
  Cl  Cl16585  1  0.73333333  0.53333333  0.26666667  1
  Cl  Cl16586  1  0.73333333  0.53333333  0.46666667  1
  Cl  Cl16587  1  0.73333333  0.53333333  0.66666667  1
  Cl  Cl16588  1  0.73333333  0.53333333  0.86666667  1
  Cl  Cl16589  1  0.73333333  0.73333333  0.06666667  1
  Cl  Cl16590  1  0.73333333  0.73333333  0.26666667  1
  Cl  Cl16591  1  0.73333333  0.73333333  0.46666667  1
  Cl  Cl16592  1  0.73333333  0.73333333  0.66666667  1
  Cl  Cl16593  1  0.73333333  0.73333333  0.86666667  1
  Cl  Cl16594  1  0.73333333  0.93333333  0.06666667  1
  Cl  Cl16595  1  0.73333333  0.93333333  0.26666667  1
  Cl  Cl16596  1  0.73333333  0.93333333  0.46666667  1
  Cl  Cl16597  1  0.73333333  0.93333333  0.66666667  1
  Cl  Cl16598  1  0.73333333  0.93333333  0.86666667  1
  Cl  Cl16599  1  0.93333333  0.13333333  0.06666667  1
  Cl  Cl16600  1  0.93333333  0.13333333  0.26666667  1
  Cl  Cl16601  1  0.93333333  0.13333333  0.46666667  1
  Cl  Cl16602  1  0.93333333  0.13333333  0.66666667  1
  Cl  Cl16603  1  0.93333333  0.13333333  0.86666667  1
  Cl  Cl16604  1  0.93333333  0.33333333  0.06666667  1
  Cl  Cl16605  1  0.93333333  0.33333333  0.26666667  1
  Cl  Cl16606  1  0.93333333  0.33333333  0.46666667  1
  Cl  Cl16607  1  0.93333333  0.33333333  0.66666667  1
  Cl  Cl16608  1  0.93333333  0.33333333  0.86666667  1
  Cl  Cl16609  1  0.93333333  0.53333333  0.06666667  1
  Cl  Cl16610  1  0.93333333  0.53333333  0.26666667  1
  Cl  Cl16611  1  0.93333333  0.53333333  0.46666667  1
  Cl  Cl16612  1  0.93333333  0.53333333  0.66666667  1
  Cl  Cl16613  1  0.93333333  0.53333333  0.86666667  1
  Cl  Cl16614  1  0.93333333  0.73333333  0.06666667  1
  Cl  Cl16615  1  0.93333333  0.73333333  0.26666667  1
  Cl  Cl16616  1  0.93333333  0.73333333  0.46666667  1
  Cl  Cl16617  1  0.93333333  0.73333333  0.66666667  1
  Cl  Cl16618  1  0.93333333  0.73333333  0.86666667  1
  Cl  Cl16619  1  0.93333333  0.93333333  0.06666667  1
  Cl  Cl16620  1  0.93333333  0.93333333  0.26666667  1
  Cl  Cl16621  1  0.93333333  0.93333333  0.46666667  1
  Cl  Cl16622  1  0.93333333  0.93333333  0.66666667  1
  Cl  Cl16623  1  0.93333333  0.93333333  0.86666667  1
  Cl  Cl16624  1  0.13333333  0.13333333  0.13333333  1
  Cl  Cl16625  1  0.13333333  0.13333333  0.33333333  1
  Cl  Cl16626  1  0.13333333  0.13333333  0.53333333  1
  Cl  Cl16627  1  0.13333333  0.13333333  0.73333333  1
  Cl  Cl16628  1  0.13333333  0.13333333  0.93333333  1
  Cl  Cl16629  1  0.13333333  0.33333333  0.13333333  1
  Cl  Cl16630  1  0.13333333  0.33333333  0.33333333  1
  Cl  Cl16631  1  0.13333333  0.33333333  0.53333333  1
  Cl  Cl16632  1  0.13333333  0.33333333  0.73333333  1
  Cl  Cl16633  1  0.13333333  0.33333333  0.93333333  1
  Cl  Cl16634  1  0.13333333  0.53333333  0.13333333  1
  Cl  Cl16635  1  0.13333333  0.53333333  0.33333333  1
  Cl  Cl16636  1  0.13333333  0.53333333  0.53333333  1
  Cl  Cl16637  1  0.13333333  0.53333333  0.73333333  1
  Cl  Cl16638  1  0.13333333  0.53333333  0.93333333  1
  Cl  Cl16639  1  0.13333333  0.73333333  0.13333333  1
  Cl  Cl16640  1  0.13333333  0.73333333  0.33333333  1
  Cl  Cl16641  1  0.13333333  0.73333333  0.53333333  1
  Cl  Cl16642  1  0.13333333  0.73333333  0.73333333  1
  Cl  Cl16643  1  0.13333333  0.73333333  0.93333333  1
  Cl  Cl16644  1  0.13333333  0.93333333  0.13333333  1
  Cl  Cl16645  1  0.13333333  0.93333333  0.33333333  1
  Cl  Cl16646  1  0.13333333  0.93333333  0.53333333  1
  Cl  Cl16647  1  0.13333333  0.93333333  0.73333333  1
  Cl  Cl16648  1  0.13333333  0.93333333  0.93333333  1
  Cl  Cl16649  1  0.33333333  0.13333333  0.13333333  1
  Cl  Cl16650  1  0.33333333  0.13333333  0.33333333  1
  Cl  Cl16651  1  0.33333333  0.13333333  0.53333333  1
  Cl  Cl16652  1  0.33333333  0.13333333  0.73333333  1
  Cl  Cl16653  1  0.33333333  0.13333333  0.93333333  1
  Cl  Cl16654  1  0.33333333  0.33333333  0.13333333  1
  Cl  Cl16655  1  0.33333333  0.33333333  0.33333333  1
  Cl  Cl16656  1  0.33333333  0.33333333  0.53333333  1
  Cl  Cl16657  1  0.33333333  0.33333333  0.73333333  1
  Cl  Cl16658  1  0.33333333  0.33333333  0.93333333  1
  Cl  Cl16659  1  0.33333333  0.53333333  0.13333333  1
  Cl  Cl16660  1  0.33333333  0.53333333  0.33333333  1
  Cl  Cl16661  1  0.33333333  0.53333333  0.53333333  1
  Cl  Cl16662  1  0.33333333  0.53333333  0.73333333  1
  Cl  Cl16663  1  0.33333333  0.53333333  0.93333333  1
  Cl  Cl16664  1  0.33333333  0.73333333  0.13333333  1
  Cl  Cl16665  1  0.33333333  0.73333333  0.33333333  1
  Cl  Cl16666  1  0.33333333  0.73333333  0.53333333  1
  Cl  Cl16667  1  0.33333333  0.73333333  0.73333333  1
  Cl  Cl16668  1  0.33333333  0.73333333  0.93333333  1
  Cl  Cl16669  1  0.33333333  0.93333333  0.13333333  1
  Cl  Cl16670  1  0.33333333  0.93333333  0.33333333  1
  Cl  Cl16671  1  0.33333333  0.93333333  0.53333333  1
  Cl  Cl16672  1  0.33333333  0.93333333  0.73333333  1
  Cl  Cl16673  1  0.33333333  0.93333333  0.93333333  1
  Cl  Cl16674  1  0.53333333  0.13333333  0.13333333  1
  Cl  Cl16675  1  0.53333333  0.13333333  0.33333333  1
  Cl  Cl16676  1  0.53333333  0.13333333  0.53333333  1
  Cl  Cl16677  1  0.53333333  0.13333333  0.73333333  1
  Cl  Cl16678  1  0.53333333  0.13333333  0.93333333  1
  Cl  Cl16679  1  0.53333333  0.33333333  0.13333333  1
  Cl  Cl16680  1  0.53333333  0.33333333  0.33333333  1
  Cl  Cl16681  1  0.53333333  0.33333333  0.53333333  1
  Cl  Cl16682  1  0.53333333  0.33333333  0.73333333  1
  Cl  Cl16683  1  0.53333333  0.33333333  0.93333333  1
  Cl  Cl16684  1  0.53333333  0.53333333  0.13333333  1
  Cl  Cl16685  1  0.53333333  0.53333333  0.33333333  1
  Cl  Cl16686  1  0.53333333  0.53333333  0.53333333  1
  Cl  Cl16687  1  0.53333333  0.53333333  0.73333333  1
  Cl  Cl16688  1  0.53333333  0.53333333  0.93333333  1
  Cl  Cl16689  1  0.53333333  0.73333333  0.13333333  1
  Cl  Cl16690  1  0.53333333  0.73333333  0.33333333  1
  Cl  Cl16691  1  0.53333333  0.73333333  0.53333333  1
  Cl  Cl16692  1  0.53333333  0.73333333  0.73333333  1
  Cl  Cl16693  1  0.53333333  0.73333333  0.93333333  1
  Cl  Cl16694  1  0.53333333  0.93333333  0.13333333  1
  Cl  Cl16695  1  0.53333333  0.93333333  0.33333333  1
  Cl  Cl16696  1  0.53333333  0.93333333  0.53333333  1
  Cl  Cl16697  1  0.53333333  0.93333333  0.73333333  1
  Cl  Cl16698  1  0.53333333  0.93333333  0.93333333  1
  Cl  Cl16699  1  0.73333333  0.13333333  0.13333333  1
  Cl  Cl16700  1  0.73333333  0.13333333  0.33333333  1
  Cl  Cl16701  1  0.73333333  0.13333333  0.53333333  1
  Cl  Cl16702  1  0.73333333  0.13333333  0.73333333  1
  Cl  Cl16703  1  0.73333333  0.13333333  0.93333333  1
  Cl  Cl16704  1  0.73333333  0.33333333  0.13333333  1
  Cl  Cl16705  1  0.73333333  0.33333333  0.33333333  1
  Cl  Cl16706  1  0.73333333  0.33333333  0.53333333  1
  Cl  Cl16707  1  0.73333333  0.33333333  0.73333333  1
  Cl  Cl16708  1  0.73333333  0.33333333  0.93333333  1
  Cl  Cl16709  1  0.73333333  0.53333333  0.13333333  1
  Cl  Cl16710  1  0.73333333  0.53333333  0.33333333  1
  Cl  Cl16711  1  0.73333333  0.53333333  0.53333333  1
  Cl  Cl16712  1  0.73333333  0.53333333  0.73333333  1
  Cl  Cl16713  1  0.73333333  0.53333333  0.93333333  1
  Cl  Cl16714  1  0.73333333  0.73333333  0.13333333  1
  Cl  Cl16715  1  0.73333333  0.73333333  0.33333333  1
  Cl  Cl16716  1  0.73333333  0.73333333  0.53333333  1
  Cl  Cl16717  1  0.73333333  0.73333333  0.73333333  1
  Cl  Cl16718  1  0.73333333  0.73333333  0.93333333  1
  Cl  Cl16719  1  0.73333333  0.93333333  0.13333333  1
  Cl  Cl16720  1  0.73333333  0.93333333  0.33333333  1
  Cl  Cl16721  1  0.73333333  0.93333333  0.53333333  1
  Cl  Cl16722  1  0.73333333  0.93333333  0.73333333  1
  Cl  Cl16723  1  0.73333333  0.93333333  0.93333333  1
  Cl  Cl16724  1  0.93333333  0.13333333  0.13333333  1
  Cl  Cl16725  1  0.93333333  0.13333333  0.33333333  1
  Cl  Cl16726  1  0.93333333  0.13333333  0.53333333  1
  Cl  Cl16727  1  0.93333333  0.13333333  0.73333333  1
  Cl  Cl16728  1  0.93333333  0.13333333  0.93333333  1
  Cl  Cl16729  1  0.93333333  0.33333333  0.13333333  1
  Cl  Cl16730  1  0.93333333  0.33333333  0.33333333  1
  Cl  Cl16731  1  0.93333333  0.33333333  0.53333333  1
  Cl  Cl16732  1  0.93333333  0.33333333  0.73333333  1
  Cl  Cl16733  1  0.93333333  0.33333333  0.93333333  1
  Cl  Cl16734  1  0.93333333  0.53333333  0.13333333  1
  Cl  Cl16735  1  0.93333333  0.53333333  0.33333333  1
  Cl  Cl16736  1  0.93333333  0.53333333  0.53333333  1
  Cl  Cl16737  1  0.93333333  0.53333333  0.73333333  1
  Cl  Cl16738  1  0.93333333  0.53333333  0.93333333  1
  Cl  Cl16739  1  0.93333333  0.73333333  0.13333333  1
  Cl  Cl16740  1  0.93333333  0.73333333  0.33333333  1
  Cl  Cl16741  1  0.93333333  0.73333333  0.53333333  1
  Cl  Cl16742  1  0.93333333  0.73333333  0.73333333  1
  Cl  Cl16743  1  0.93333333  0.73333333  0.93333333  1
  Cl  Cl16744  1  0.93333333  0.93333333  0.13333333  1
  Cl  Cl16745  1  0.93333333  0.93333333  0.33333333  1
  Cl  Cl16746  1  0.93333333  0.93333333  0.53333333  1
  Cl  Cl16747  1  0.93333333  0.93333333  0.73333333  1
  Cl  Cl16748  1  0.93333333  0.93333333  0.93333333  1
